Molecule_0
     RDKit          2D

 24 25  0  0  0  0  0  0  0  0999 V2000
    4.5335   -3.3606    0.0000 C   0  0  0  0  0  0  0  0  0  0  0  0
    4.6441   -1.8646    0.0000 O   0  0  0  0  0  0  0  0  0  0  0  0
    3.4039   -1.0209    0.0000 C   0  0  0  0  0  0  0  0  0  0  0  0
    2.0531   -1.6730    0.0000 C   0  0  0  0  0  0  0  0  0  0  0  0
    0.8129   -0.8292    0.0000 C   0  0  0  0  0  0  0  0  0  0  0  0
    0.9236    0.6667    0.0000 C   0  0  0  0  0  0  0  0  0  0  0  0
   -0.3166    1.5105    0.0000 N   0  0  0  0  0  0  0  0  0  0  0  0
   -1.7282    1.0031    0.0000 C   0  0  0  0  0  0  0  0  0  0  0  0
   -2.1474   -0.4371    0.0000 P   0  0  0  0  0  0  0  0  0  0  0  0
   -3.6043   -0.7941    0.0000 C   0  0  0  0  0  0  0  0  0  0  0  0
   -3.2473   -2.2510    0.0000 C   0  0  0  0  0  0  0  0  0  0  0  0
   -3.9614    0.6627    0.0000 C   0  0  0  0  0  0  0  0  0  0  0  0
   -5.0612   -1.1512    0.0000 C   0  0  0  0  0  0  0  0  0  0  0  0
   -1.1098   -1.5203    0.0000 C   0  0  0  0  0  0  0  0  0  0  0  0
   -2.1930   -2.5579    0.0000 C   0  0  0  0  0  0  0  0  0  0  0  0
   -0.0266   -0.4827    0.0000 C   0  0  0  0  0  0  0  0  0  0  0  0
   -0.0721   -2.6035    0.0000 C   0  0  0  0  0  0  0  0  0  0  0  0
   -2.6469    2.1888    0.0000 C   0  0  0  0  0  0  0  0  0  0  0  0
   -1.8032    3.4290    0.0000 C   0  0  0  0  0  0  0  0  0  0  0  0
   -0.3629    3.0098    0.0000 N   0  0  0  0  0  0  0  0  0  0  0  0
    2.2744    1.3188    0.0000 C   0  0  0  0  0  0  0  0  0  0  0  0
    2.3850    2.8147    0.0000 O   0  0  0  0  0  0  0  0  0  0  0  0
    3.7359    3.4669    0.0000 C   0  0  0  0  0  0  0  0  0  0  0  0
    3.5146    0.4751    0.0000 C   0  0  0  0  0  0  0  0  0  0  0  0
  1  2  1  0
  2  3  1  0
  3  4  2  0
  4  5  1  0
  5  6  2  0
  6  7  1  0
  7  8  1  0
  8  9  1  0
  9 10  1  0
 10 11  1  0
 10 12  1  0
 10 13  1  0
  9 14  1  0
 14 15  1  0
 14 16  1  0
 14 17  1  0
  8 18  2  0
 18 19  1  0
 19 20  2  0
  6 21  1  0
 21 22  1  0
 22 23  1  0
 21 24  2  0
 24  3  1  0
 20  7  1  0
M  END
$$$$
Molecule_1
     RDKit          2D

 36 40  0  0  0  0  0  0  0  0999 V2000
    1.4893   -0.0707    0.0000 P   0  0  0  0  0  0  0  0  0  0  0  0
    1.8945    1.3736    0.0000 C   0  0  0  0  0  0  0  0  0  0  0  0
    3.3478    1.7449    0.0000 C   0  0  0  0  0  0  0  0  0  0  0  0
    4.3960    0.6719    0.0000 O   0  0  0  0  0  0  0  0  0  0  0  0
    5.7932    1.2176    0.0000 C   0  0  0  0  0  0  0  0  0  0  0  0
    3.7529    3.1891    0.0000 C   0  0  0  0  0  0  0  0  0  0  0  0
    2.7047    4.2621    0.0000 C   0  0  0  0  0  0  0  0  0  0  0  0
    1.2514    3.8908    0.0000 C   0  0  0  0  0  0  0  0  0  0  0  0
    0.8463    2.4466    0.0000 C   0  0  0  0  0  0  0  0  0  0  0  0
   -0.6071    2.0753    0.0000 O   0  0  0  0  0  0  0  0  0  0  0  0
   -1.6553    3.1482    0.0000 C   0  0  0  0  0  0  0  0  0  0  0  0
    0.0360   -0.4420    0.0000 C   0  0  0  0  0  0  0  0  0  0  0  0
   -1.0122    0.6310    0.0000 C   0  0  0  0  0  0  0  0  0  0  0  0
   -2.4655    0.2597    0.0000 C   0  0  0  0  0  0  0  0  0  0  0  0
   -2.8706   -1.1845    0.0000 C   0  0  0  0  0  0  0  0  0  0  0  0
   -4.3240   -1.5558    0.0000 C   0  0  0  0  0  0  0  0  0  0  0  0
   -4.9420   -0.1890    0.0000 C   0  0  0  0  0  0  0  0  0  0  0  0
   -4.0673    1.0296    0.0000 C   0  0  0  0  0  0  0  0  0  0  0  0
   -4.6853    2.3963    0.0000 C   0  0  0  0  0  0  0  0  0  0  0  0
   -6.1780    2.5445    0.0000 C   0  0  0  0  0  0  0  0  0  0  0  0
   -7.0526    1.3259    0.0000 C   0  0  0  0  0  0  0  0  0  0  0  0
   -6.4346   -0.0409    0.0000 C   0  0  0  0  0  0  0  0  0  0  0  0
   -5.5626   -2.4018    0.0000 C   0  0  0  0  0  0  0  0  0  0  0  0
   -4.2107   -3.0515    0.0000 C   0  0  0  0  0  0  0  0  0  0  0  0
   -1.8224   -2.2575    0.0000 C   0  0  0  0  0  0  0  0  0  0  0  0
   -0.3691   -1.8862    0.0000 C   0  0  0  0  0  0  0  0  0  0  0  0
    2.5375   -1.1437    0.0000 C   0  0  0  0  0  0  0  0  0  0  0  0
    3.9909   -0.7724    0.0000 C   0  0  0  0  0  0  0  0  0  0  0  0
    4.3960    0.6719    0.0000 O   0  0  0  0  0  0  0  0  0  0  0  0
    5.8837    0.8632    0.0000 C   0  0  0  0  0  0  0  0  0  0  0  0
    5.0391   -1.8453    0.0000 C   0  0  0  0  0  0  0  0  0  0  0  0
    4.6339   -3.2896    0.0000 C   0  0  0  0  0  0  0  0  0  0  0  0
    3.1806   -3.6609    0.0000 C   0  0  0  0  0  0  0  0  0  0  0  0
    2.1324   -2.5879    0.0000 C   0  0  0  0  0  0  0  0  0  0  0  0
    0.6791   -2.9592    0.0000 O   0  0  0  0  0  0  0  0  0  0  0  0
    0.2740   -4.4034    0.0000 C   0  0  0  0  0  0  0  0  0  0  0  0
  1  2  1  0
  2  3  2  0
  3  4  1  0
  4  5  1  0
  3  6  1  0
  6  7  2  0
  7  8  1  0
  8  9  2  0
  9 10  1  0
 10 11  1  0
  1 12  1  0
 12 13  2  0
 13 14  1  0
 14 15  2  0
 15 16  1  0
 16 17  1  0
 17 18  2  0
 18 19  1  0
 19 20  2  0
 20 21  1  0
 21 22  2  0
 16 23  1  0
 23 24  1  0
 15 25  1  0
 25 26  2  0
  1 27  1  0
 27 28  2  0
 28 29  1  0
 29 30  1  0
 28 31  1  0
 31 32  2  0
 32 33  1  0
 33 34  2  0
 34 35  1  0
 35 36  1  0
  9  2  1  0
 26 12  1  0
 34 27  1  0
 24 16  1  0
 22 17  1  0
M  END
$$$$
Molecule_2
     RDKit          2D

 38 42  0  0  0  0  0  0  0  0999 V2000
    0.7143    0.6608    0.0000 P   0  0  0  0  0  0  0  0  0  0  0  0
    2.0165   -0.0837    0.0000 C   0  0  0  0  0  0  0  0  0  0  0  0
    3.3124    0.6718    0.0000 C   0  0  0  0  0  0  0  0  0  0  0  0
    3.3060    2.1718    0.0000 O   0  0  0  0  0  0  0  0  0  0  0  0
    2.2226    3.2093    0.0000 C   0  0  0  0  0  0  0  0  0  0  0  0
    4.6146   -0.0727    0.0000 C   0  0  0  0  0  0  0  0  0  0  0  0
    4.6209   -1.5726    0.0000 C   0  0  0  0  0  0  0  0  0  0  0  0
    3.3251   -2.3282    0.0000 C   0  0  0  0  0  0  0  0  0  0  0  0
    2.0229   -1.5837    0.0000 C   0  0  0  0  0  0  0  0  0  0  0  0
    0.7270   -2.3392    0.0000 O   0  0  0  0  0  0  0  0  0  0  0  0
    1.0962   -3.7931    0.0000 C   0  0  0  0  0  0  0  0  0  0  0  0
   -0.5815   -0.0947    0.0000 N   0  0  0  0  0  0  0  0  0  0  0  0
   -1.9544    0.5096    0.0000 N   0  0  0  0  0  0  0  0  0  0  0  0
   -2.9534   -0.6094    0.0000 C   0  0  0  0  0  0  0  0  0  0  0  0
   -4.4458   -0.4589    0.0000 C   0  0  0  0  0  0  0  0  0  0  0  0
   -5.3223   -1.6762    0.0000 C   0  0  0  0  0  0  0  0  0  0  0  0
   -6.8148   -1.5257    0.0000 C   0  0  0  0  0  0  0  0  0  0  0  0
   -7.4307   -0.1580    0.0000 C   0  0  0  0  0  0  0  0  0  0  0  0
   -6.5542    1.0592    0.0000 C   0  0  0  0  0  0  0  0  0  0  0  0
   -5.0617    0.9088    0.0000 C   0  0  0  0  0  0  0  0  0  0  0  0
   -2.1979   -1.9052    0.0000 C   0  0  0  0  0  0  0  0  0  0  0  0
   -0.7320   -1.5872    0.0000 C   0  0  0  0  0  0  0  0  0  0  0  0
    0.3870   -2.5861    0.0000 C   0  0  0  0  0  0  0  0  0  0  0  0
    1.8116   -2.1165    0.0000 C   0  0  0  0  0  0  0  0  0  0  0  0
    2.9305   -3.1155    0.0000 C   0  0  0  0  0  0  0  0  0  0  0  0
    2.6249   -4.5840    0.0000 C   0  0  0  0  0  0  0  0  0  0  0  0
    1.2003   -5.0536    0.0000 C   0  0  0  0  0  0  0  0  0  0  0  0
    0.0813   -4.0546    0.0000 C   0  0  0  0  0  0  0  0  0  0  0  0
    0.7079    2.1608    0.0000 C   0  0  0  0  0  0  0  0  0  0  0  0
    2.0038    2.9163    0.0000 C   0  0  0  0  0  0  0  0  0  0  0  0
    3.3060    2.1718    0.0000 O   0  0  0  0  0  0  0  0  0  0  0  0
    4.6018    2.9273    0.0000 C   0  0  0  0  0  0  0  0  0  0  0  0
    1.9974    4.4163    0.0000 C   0  0  0  0  0  0  0  0  0  0  0  0
    0.6952    5.1607    0.0000 C   0  0  0  0  0  0  0  0  0  0  0  0
   -0.6006    4.4052    0.0000 C   0  0  0  0  0  0  0  0  0  0  0  0
   -0.5943    2.9053    0.0000 C   0  0  0  0  0  0  0  0  0  0  0  0
   -1.8901    2.1497    0.0000 O   0  0  0  0  0  0  0  0  0  0  0  0
   -3.1923    2.8942    0.0000 C   0  0  0  0  0  0  0  0  0  0  0  0
  1  2  1  0
  2  3  2  0
  3  4  1  0
  4  5  1  0
  3  6  1  0
  6  7  2  0
  7  8  1  0
  8  9  2  0
  9 10  1  0
 10 11  1  0
  1 12  1  0
 12 13  1  0
 13 14  2  0
 14 15  1  0
 15 16  2  0
 16 17  1  0
 17 18  2  0
 18 19  1  0
 19 20  2  0
 14 21  1  0
 21 22  2  0
 22 23  1  0
 23 24  2  0
 24 25  1  0
 25 26  2  0
 26 27  1  0
 27 28  2  0
  1 29  1  0
 29 30  2  0
 30 31  1  0
 31 32  1  0
 30 33  1  0
 33 34  2  0
 34 35  1  0
 35 36  2  0
 36 37  1  0
 37 38  1  0
  9  2  1  0
 22 12  1  0
 28 23  1  0
 36 29  1  0
 20 15  1  0
M  END
$$$$
Molecule_3
     RDKit          2D

 40 43  0  0  0  0  0  0  0  0999 V2000
   -0.4766   -0.2482    0.0000 P   0  0  0  0  0  0  0  0  0  0  0  0
   -0.8127    1.2137    0.0000 C   0  0  0  0  0  0  0  0  0  0  0  0
   -2.2467    1.6536    0.0000 C   0  0  0  0  0  0  0  0  0  0  0  0
   -3.3447    0.6316    0.0000 O   0  0  0  0  0  0  0  0  0  0  0  0
   -4.7787    1.0715    0.0000 C   0  0  0  0  0  0  0  0  0  0  0  0
   -5.9931    0.1909    0.0000 C   0  0  0  0  0  0  0  0  0  0  0  0
   -4.9341    2.5634    0.0000 C   0  0  0  0  0  0  0  0  0  0  0  0
   -2.5828    3.1154    0.0000 C   0  0  0  0  0  0  0  0  0  0  0  0
   -1.4848    4.1374    0.0000 C   0  0  0  0  0  0  0  0  0  0  0  0
   -0.0508    3.6976    0.0000 C   0  0  0  0  0  0  0  0  0  0  0  0
    0.2853    2.2357    0.0000 C   0  0  0  0  0  0  0  0  0  0  0  0
    1.7194    1.7958    0.0000 O   0  0  0  0  0  0  0  0  0  0  0  0
    2.8173    2.8178    0.0000 C   0  0  0  0  0  0  0  0  0  0  0  0
    4.2514    2.3779    0.0000 C   0  0  0  0  0  0  0  0  0  0  0  0
    2.4812    4.2797    0.0000 C   0  0  0  0  0  0  0  0  0  0  0  0
    0.9575   -0.6880    0.0000 C   0  0  0  0  0  0  0  0  0  0  0  0
    2.1563    0.2136    0.0000 N   0  0  0  0  0  0  0  0  0  0  0  0
    3.3842   -0.6479    0.0000 N   0  0  0  0  0  0  0  0  0  0  0  0
    4.8029   -0.1608    0.0000 C   0  0  0  0  0  0  0  0  0  0  0  0
    5.9341   -1.1460    0.0000 C   0  0  0  0  0  0  0  0  0  0  0  0
    7.3528   -0.6589    0.0000 C   0  0  0  0  0  0  0  0  0  0  0  0
    7.6404    0.8133    0.0000 C   0  0  0  0  0  0  0  0  0  0  0  0
    6.5092    1.7984    0.0000 C   0  0  0  0  0  0  0  0  0  0  0  0
    5.0905    1.3113    0.0000 C   0  0  0  0  0  0  0  0  0  0  0  0
    2.9443   -2.0820    0.0000 C   0  0  0  0  0  0  0  0  0  0  0  0
    1.4445   -2.1068    0.0000 C   0  0  0  0  0  0  0  0  0  0  0  0
   -1.5745   -1.2702    0.0000 C   0  0  0  0  0  0  0  0  0  0  0  0
   -1.2385   -2.7320    0.0000 C   0  0  0  0  0  0  0  0  0  0  0  0
    0.1956   -3.1719    0.0000 O   0  0  0  0  0  0  0  0  0  0  0  0
    0.5317   -4.6337    0.0000 C   0  0  0  0  0  0  0  0  0  0  0  0
    1.9657   -5.0736    0.0000 C   0  0  0  0  0  0  0  0  0  0  0  0
   -0.5663   -5.6557    0.0000 C   0  0  0  0  0  0  0  0  0  0  0  0
   -2.3364   -3.7540    0.0000 C   0  0  0  0  0  0  0  0  0  0  0  0
   -3.7705   -3.3141    0.0000 C   0  0  0  0  0  0  0  0  0  0  0  0
   -4.1066   -1.8523    0.0000 C   0  0  0  0  0  0  0  0  0  0  0  0
   -3.0086   -0.8303    0.0000 C   0  0  0  0  0  0  0  0  0  0  0  0
   -3.3447    0.6316    0.0000 O   0  0  0  0  0  0  0  0  0  0  0  0
   -4.7787    1.0715    0.0000 C   0  0  0  0  0  0  0  0  0  0  0  0
   -5.2905    2.4815    0.0000 C   0  0  0  0  0  0  0  0  0  0  0  0
   -5.7439   -0.0768    0.0000 C   0  0  0  0  0  0  0  0  0  0  0  0
  1  2  1  0
  2  3  2  0
  3  4  1  0
  4  5  1  0
  5  6  1  0
  5  7  1  0
  3  8  1  0
  8  9  2  0
  9 10  1  0
 10 11  2  0
 11 12  1  0
 12 13  1  0
 13 14  1  0
 13 15  1  0
  1 16  1  0
 16 17  2  0
 17 18  1  0
 18 19  1  0
 19 20  2  0
 20 21  1  0
 21 22  2  0
 22 23  1  0
 23 24  2  0
 18 25  1  0
 25 26  2  0
  1 27  1  0
 27 28  2  0
 28 29  1  0
 29 30  1  0
 30 31  1  0
 30 32  1  0
 28 33  1  0
 33 34  2  0
 34 35  1  0
 35 36  2  0
 36 37  1  0
 37 38  1  0
 38 39  1  0
 38 40  1  0
 11  2  1  0
 26 16  1  0
 36 27  1  0
 24 19  1  0
M  END
$$$$
Molecule_4
     RDKit          2D

 44 50  0  0  0  0  0  0  0  0999 V2000
    0.1260    1.5189    0.0000 P   0  0  0  0  0  0  0  0  0  0  0  0
    1.4656    0.8439    0.0000 C   0  0  0  0  0  0  0  0  0  0  0  0
    2.7990    1.5308    0.0000 N   0  0  0  0  0  0  0  0  0  0  0  0
    3.8644    0.4749    0.0000 N   0  0  0  0  0  0  0  0  0  0  0  0
    5.3449    0.7161    0.0000 C   0  0  0  0  0  0  0  0  0  0  0  0
    6.2940   -0.4454    0.0000 C   0  0  0  0  0  0  0  0  0  0  0  0
    7.7745   -0.2041    0.0000 C   0  0  0  0  0  0  0  0  0  0  0  0
    8.3058    1.1986    0.0000 C   0  0  0  0  0  0  0  0  0  0  0  0
    7.3567    2.3601    0.0000 C   0  0  0  0  0  0  0  0  0  0  0  0
    5.8762    2.1189    0.0000 C   0  0  0  0  0  0  0  0  0  0  0  0
    3.1894   -0.8647    0.0000 C   0  0  0  0  0  0  0  0  0  0  0  0
    3.8763   -2.1981    0.0000 C   0  0  0  0  0  0  0  0  0  0  0  0
    3.0650   -3.4598    0.0000 C   0  0  0  0  0  0  0  0  0  0  0  0
    3.7519   -4.7932    0.0000 C   0  0  0  0  0  0  0  0  0  0  0  0
    5.2502   -4.8651    0.0000 C   0  0  0  0  0  0  0  0  0  0  0  0
    6.0615   -3.6034    0.0000 C   0  0  0  0  0  0  0  0  0  0  0  0
    5.3746   -2.2700    0.0000 C   0  0  0  0  0  0  0  0  0  0  0  0
    1.7068   -0.6366    0.0000 C   0  0  0  0  0  0  0  0  0  0  0  0
    0.0409    3.0165    0.0000 C   0  0  0  0  0  0  0  0  0  0  0  0
    1.2952    3.8390    0.0000 C   0  0  0  0  0  0  0  0  0  0  0  0
    1.2100    5.3366    0.0000 C   0  0  0  0  0  0  0  0  0  0  0  0
   -0.1295    6.0116    0.0000 C   0  0  0  0  0  0  0  0  0  0  0  0
   -1.3838    5.1891    0.0000 C   0  0  0  0  0  0  0  0  0  0  0  0
   -1.2987    3.6915    0.0000 C   0  0  0  0  0  0  0  0  0  0  0  0
   -2.5530    2.8689    0.0000 N   0  0  0  0  0  0  0  0  0  0  0  0
   -2.7366    1.9021    0.0000 C   0  0  0  0  0  0  0  0  0  0  0  0
   -3.8926    3.5440    0.0000 C   0  0  0  0  0  0  0  0  0  0  0  0
   -1.1283    0.6963    0.0000 C   0  0  0  0  0  0  0  0  0  0  0  0
   -1.2002   -0.8019    0.0000 N   0  0  0  0  0  0  0  0  0  0  0  0
   -2.6473   -1.1966    0.0000 N   0  0  0  0  0  0  0  0  0  0  0  0
   -3.1786   -2.5994    0.0000 C   0  0  0  0  0  0  0  0  0  0  0  0
   -4.6591   -2.8406    0.0000 C   0  0  0  0  0  0  0  0  0  0  0  0
   -5.1904   -4.2434    0.0000 C   0  0  0  0  0  0  0  0  0  0  0  0
   -4.2412   -5.4049    0.0000 C   0  0  0  0  0  0  0  0  0  0  0  0
   -2.7608   -5.1636    0.0000 C   0  0  0  0  0  0  0  0  0  0  0  0
   -2.2294   -3.7609    0.0000 C   0  0  0  0  0  0  0  0  0  0  0  0
   -3.4699    0.0577    0.0000 C   0  0  0  0  0  0  0  0  0  0  0  0
   -4.9681    0.1296    0.0000 C   0  0  0  0  0  0  0  0  0  0  0  0
   -5.6551    1.4630    0.0000 C   0  0  0  0  0  0  0  0  0  0  0  0
   -7.1533    1.5349    0.0000 C   0  0  0  0  0  0  0  0  0  0  0  0
   -7.9647    0.2732    0.0000 C   0  0  0  0  0  0  0  0  0  0  0  0
   -7.2778   -1.0602    0.0000 C   0  0  0  0  0  0  0  0  0  0  0  0
   -5.7795   -1.1321    0.0000 C   0  0  0  0  0  0  0  0  0  0  0  0
   -2.5311    1.2277    0.0000 C   0  0  0  0  0  0  0  0  0  0  0  0
  1  2  1  0
  2  3  2  0
  3  4  1  0
  4  5  1  0
  5  6  2  0
  6  7  1  0
  7  8  2  0
  8  9  1  0
  9 10  2  0
  4 11  1  0
 11 12  1  0
 12 13  2  0
 13 14  1  0
 14 15  2  0
 15 16  1  0
 16 17  2  0
 11 18  2  0
  1 19  1  0
 19 20  2  0
 20 21  1  0
 21 22  2  0
 22 23  1  0
 23 24  2  0
 24 25  1  0
 25 26  1  0
 25 27  1  0
  1 28  1  0
 28 29  2  0
 29 30  1  0
 30 31  1  0
 31 32  2  0
 32 33  1  0
 33 34  2  0
 34 35  1  0
 35 36  2  0
 30 37  1  0
 37 38  1  0
 38 39  2  0
 39 40  1  0
 40 41  2  0
 41 42  1  0
 42 43  2  0
 37 44  2  0
 18  2  1  0
 24 19  1  0
 44 28  1  0
 10  5  1  0
 17 12  1  0
 36 31  1  0
 43 38  1  0
M  END
$$$$
Molecule_5
     RDKit          2D

 34 38  0  0  0  0  0  0  0  0999 V2000
    0.0158   -0.4143    0.0000 P   0  0  0  0  0  0  0  0  0  0  0  0
    0.8167   -1.6825    0.0000 C   0  0  0  0  0  0  0  0  0  0  0  0
    0.1189   -3.0103    0.0000 C   0  0  0  0  0  0  0  0  0  0  0  0
    0.9199   -4.2786    0.0000 C   0  0  0  0  0  0  0  0  0  0  0  0
    2.4187   -4.2190    0.0000 C   0  0  0  0  0  0  0  0  0  0  0  0
    3.1165   -2.8912    0.0000 C   0  0  0  0  0  0  0  0  0  0  0  0
    2.3156   -1.6230    0.0000 C   0  0  0  0  0  0  0  0  0  0  0  0
    3.0134   -0.2952    0.0000 N   0  0  0  0  0  0  0  0  0  0  0  0
    4.5122   -0.2357    0.0000 C   0  0  0  0  0  0  0  0  0  0  0  0
    5.2101    1.0921    0.0000 C   0  0  0  0  0  0  0  0  0  0  0  0
    4.4091    2.3604    0.0000 C   0  0  0  0  0  0  0  0  0  0  0  0
    2.9103    2.3008    0.0000 C   0  0  0  0  0  0  0  0  0  0  0  0
    2.2124    0.9730    0.0000 C   0  0  0  0  0  0  0  0  0  0  0  0
   -1.4830   -0.4739    0.0000 C   0  0  0  0  0  0  0  0  0  0  0  0
   -2.2840    0.7944    0.0000 C   0  0  0  0  0  0  0  0  0  0  0  0
   -3.7828    0.7348    0.0000 C   0  0  0  0  0  0  0  0  0  0  0  0
   -4.4807   -0.5929    0.0000 C   0  0  0  0  0  0  0  0  0  0  0  0
   -3.6797   -1.8612    0.0000 C   0  0  0  0  0  0  0  0  0  0  0  0
   -2.1809   -1.8016    0.0000 C   0  0  0  0  0  0  0  0  0  0  0  0
   -1.3799   -3.0699    0.0000 N   0  0  0  0  0  0  0  0  0  0  0  0
   -2.0777   -4.3977    0.0000 C   0  0  0  0  0  0  0  0  0  0  0  0
   -0.5994   -3.2319    0.0000 C   0  0  0  0  0  0  0  0  0  0  0  0
    0.7136    0.9135    0.0000 C   0  0  0  0  0  0  0  0  0  0  0  0
    2.2124    0.9730    0.0000 C   0  0  0  0  0  0  0  0  0  0  0  0
    2.9103    2.3008    0.0000 C   0  0  0  0  0  0  0  0  0  0  0  0
    2.1093    3.5691    0.0000 C   0  0  0  0  0  0  0  0  0  0  0  0
    0.6105    3.5095    0.0000 C   0  0  0  0  0  0  0  0  0  0  0  0
   -0.0874    2.1817    0.0000 C   0  0  0  0  0  0  0  0  0  0  0  0
   -1.5862    2.1222    0.0000 N   0  0  0  0  0  0  0  0  0  0  0  0
   -2.3872    3.3904    0.0000 C   0  0  0  0  0  0  0  0  0  0  0  0
   -3.8860    3.3309    0.0000 C   0  0  0  0  0  0  0  0  0  0  0  0
   -4.5838    2.0031    0.0000 C   0  0  0  0  0  0  0  0  0  0  0  0
   -3.7828    0.7348    0.0000 C   0  0  0  0  0  0  0  0  0  0  0  0
   -2.2840    0.7944    0.0000 C   0  0  0  0  0  0  0  0  0  0  0  0
  1  2  1  0
  2  3  2  0
  3  4  1  0
  4  5  2  0
  5  6  1  0
  6  7  2  0
  7  8  1  0
  8  9  1  0
  9 10  1  0
 10 11  1  0
 11 12  1  0
 12 13  1  0
  1 14  1  0
 14 15  2  0
 15 16  1  0
 16 17  2  0
 17 18  1  0
 18 19  2  0
 19 20  1  0
 20 21  1  0
 20 22  1  0
  1 23  1  0
 23 24  2  0
 24 25  1  0
 25 26  2  0
 26 27  1  0
 27 28  2  0
 28 29  1  0
 29 30  1  0
 30 31  1  0
 31 32  1  0
 32 33  1  0
 33 34  1  0
  7  2  1  0
 13  8  1  0
 19 14  1  0
 28 23  1  0
 34 29  1  0
M  END
$$$$
Molecule_6
     RDKit          2D

 38 40  0  0  0  0  0  0  0  0999 V2000
   -0.2693    0.3244    0.0000 P   0  0  0  0  0  0  0  0  0  0  0  0
    0.8069    1.3693    0.0000 C   0  0  0  0  0  0  0  0  0  0  0  0
    2.2499    0.9598    0.0000 C   0  0  0  0  0  0  0  0  0  0  0  0
    2.6168   -0.4947    0.0000 O   0  0  0  0  0  0  0  0  0  0  0  0
    4.0598   -0.9042    0.0000 C   0  0  0  0  0  0  0  0  0  0  0  0
    4.6011   -2.3031    0.0000 C   0  0  0  0  0  0  0  0  0  0  0  0
    5.0006    0.2641    0.0000 C   0  0  0  0  0  0  0  0  0  0  0  0
    3.3261    2.0047    0.0000 C   0  0  0  0  0  0  0  0  0  0  0  0
    2.9593    3.4591    0.0000 C   0  0  0  0  0  0  0  0  0  0  0  0
    1.5163    3.8687    0.0000 C   0  0  0  0  0  0  0  0  0  0  0  0
    0.4401    2.8238    0.0000 C   0  0  0  0  0  0  0  0  0  0  0  0
   -1.0029    3.2333    0.0000 O   0  0  0  0  0  0  0  0  0  0  0  0
   -1.3697    4.6878    0.0000 C   0  0  0  0  0  0  0  0  0  0  0  0
   -2.8127    5.0973    0.0000 C   0  0  0  0  0  0  0  0  0  0  0  0
   -0.2935    5.7327    0.0000 C   0  0  0  0  0  0  0  0  0  0  0  0
   -1.7123    0.7340    0.0000 C   0  0  0  0  0  0  0  0  0  0  0  0
   -2.0791    2.1884    0.0000 C   0  0  0  0  0  0  0  0  0  0  0  0
   -3.5221    2.5980    0.0000 C   0  0  0  0  0  0  0  0  0  0  0  0
   -4.5983    1.5531    0.0000 C   0  0  0  0  0  0  0  0  0  0  0  0
   -4.2315    0.0986    0.0000 C   0  0  0  0  0  0  0  0  0  0  0  0
   -2.7885   -0.3109    0.0000 C   0  0  0  0  0  0  0  0  0  0  0  0
   -2.4216   -1.7654    0.0000 N   0  0  0  0  0  0  0  0  0  0  0  0
   -3.7187   -2.5188    0.0000 C   0  0  0  0  0  0  0  0  0  0  0  0
   -1.7302   -2.1621    0.0000 C   0  0  0  0  0  0  0  0  0  0  0  0
    0.0976   -1.1300    0.0000 C   0  0  0  0  0  0  0  0  0  0  0  0
   -0.9786   -2.1749    0.0000 C   0  0  0  0  0  0  0  0  0  0  0  0
   -2.4216   -1.7654    0.0000 O   0  0  0  0  0  0  0  0  0  0  0  0
   -3.4978   -2.8103    0.0000 C   0  0  0  0  0  0  0  0  0  0  0  0
   -4.9408   -2.4007    0.0000 C   0  0  0  0  0  0  0  0  0  0  0  0
   -3.1310   -4.2647    0.0000 C   0  0  0  0  0  0  0  0  0  0  0  0
   -0.6118   -3.6294    0.0000 C   0  0  0  0  0  0  0  0  0  0  0  0
    0.8312   -4.0389    0.0000 C   0  0  0  0  0  0  0  0  0  0  0  0
    1.9074   -2.9940    0.0000 C   0  0  0  0  0  0  0  0  0  0  0  0
    1.5406   -1.5396    0.0000 C   0  0  0  0  0  0  0  0  0  0  0  0
    2.6168   -0.4947    0.0000 O   0  0  0  0  0  0  0  0  0  0  0  0
    4.0598   -0.9042    0.0000 C   0  0  0  0  0  0  0  0  0  0  0  0
    5.2553    0.0017    0.0000 C   0  0  0  0  0  0  0  0  0  0  0  0
    4.2466   -2.3926    0.0000 C   0  0  0  0  0  0  0  0  0  0  0  0
  1  2  1  0
  2  3  2  0
  3  4  1  0
  4  5  1  0
  5  6  1  0
  5  7  1  0
  3  8  1  0
  8  9  2  0
  9 10  1  0
 10 11  2  0
 11 12  1  0
 12 13  1  0
 13 14  1  0
 13 15  1  0
  1 16  1  0
 16 17  2  0
 17 18  1  0
 18 19  2  0
 19 20  1  0
 20 21  2  0
 21 22  1  0
 22 23  1  0
 22 24  1  0
  1 25  1  0
 25 26  2  0
 26 27  1  0
 27 28  1  0
 28 29  1  0
 28 30  1  0
 26 31  1  0
 31 32  2  0
 32 33  1  0
 33 34  2  0
 34 35  1  0
 35 36  1  0
 36 37  1  0
 36 38  1  0
 11  2  1  0
 21 16  1  0
 34 25  1  0
M  END
$$$$
Molecule_7
     RDKit          2D

 38 43  0  0  0  0  0  0  0  0999 V2000
   -0.0000    2.1764    0.0000 P   0  0  0  0  0  0  0  0  0  0  0  0
    1.2990    1.4264    0.0000 C   0  0  0  0  0  0  0  0  0  0  0  0
    2.6694    2.0365    0.0000 N   0  0  0  0  0  0  0  0  0  0  0  0
    3.6731    0.9218    0.0000 N   0  0  0  0  0  0  0  0  0  0  0  0
    5.1648    1.0786    0.0000 C   0  0  0  0  0  0  0  0  0  0  0  0
    6.0465   -0.1349    0.0000 C   0  0  0  0  0  0  0  0  0  0  0  0
    7.5383    0.0219    0.0000 C   0  0  0  0  0  0  0  0  0  0  0  0
    8.1484    1.3922    0.0000 C   0  0  0  0  0  0  0  0  0  0  0  0
    7.2667    2.6057    0.0000 C   0  0  0  0  0  0  0  0  0  0  0  0
    5.7749    2.4489    0.0000 C   0  0  0  0  0  0  0  0  0  0  0  0
    2.9231   -0.3772    0.0000 C   0  0  0  0  0  0  0  0  0  0  0  0
    3.5332   -1.7476    0.0000 C   0  0  0  0  0  0  0  0  0  0  0  0
    2.6515   -2.9611    0.0000 C   0  0  0  0  0  0  0  0  0  0  0  0
    3.2616   -4.3314    0.0000 C   0  0  0  0  0  0  0  0  0  0  0  0
    4.7534   -4.4882    0.0000 C   0  0  0  0  0  0  0  0  0  0  0  0
    5.6350   -3.2747    0.0000 C   0  0  0  0  0  0  0  0  0  0  0  0
    5.0249   -1.9043    0.0000 C   0  0  0  0  0  0  0  0  0  0  0  0
    1.4558   -0.0654    0.0000 C   0  0  0  0  0  0  0  0  0  0  0  0
   -0.0000    3.6764    0.0000 C   0  0  0  0  0  0  0  0  0  0  0  0
   -1.2990    4.4264    0.0000 C   0  0  0  0  0  0  0  0  0  0  0  0
    1.2990    4.4264    0.0000 C   0  0  0  0  0  0  0  0  0  0  0  0
   -1.2990    1.4264    0.0000 C   0  0  0  0  0  0  0  0  0  0  0  0
   -1.4558   -0.0654    0.0000 N   0  0  0  0  0  0  0  0  0  0  0  0
   -2.9231   -0.3772    0.0000 N   0  0  0  0  0  0  0  0  0  0  0  0
   -3.5332   -1.7476    0.0000 C   0  0  0  0  0  0  0  0  0  0  0  0
   -5.0249   -1.9043    0.0000 C   0  0  0  0  0  0  0  0  0  0  0  0
   -5.6350   -3.2747    0.0000 C   0  0  0  0  0  0  0  0  0  0  0  0
   -4.7534   -4.4882    0.0000 C   0  0  0  0  0  0  0  0  0  0  0  0
   -3.2616   -4.3314    0.0000 C   0  0  0  0  0  0  0  0  0  0  0  0
   -2.6515   -2.9611    0.0000 C   0  0  0  0  0  0  0  0  0  0  0  0
   -3.6731    0.9218    0.0000 C   0  0  0  0  0  0  0  0  0  0  0  0
   -5.1648    1.0786    0.0000 C   0  0  0  0  0  0  0  0  0  0  0  0
   -5.7749    2.4489    0.0000 C   0  0  0  0  0  0  0  0  0  0  0  0
   -7.2667    2.6057    0.0000 C   0  0  0  0  0  0  0  0  0  0  0  0
   -8.1484    1.3922    0.0000 C   0  0  0  0  0  0  0  0  0  0  0  0
   -7.5383    0.0219    0.0000 C   0  0  0  0  0  0  0  0  0  0  0  0
   -6.0465   -0.1349    0.0000 C   0  0  0  0  0  0  0  0  0  0  0  0
   -2.6694    2.0365    0.0000 C   0  0  0  0  0  0  0  0  0  0  0  0
  1  2  1  0
  2  3  2  0
  3  4  1  0
  4  5  1  0
  5  6  2  0
  6  7  1  0
  7  8  2  0
  8  9  1  0
  9 10  2  0
  4 11  1  0
 11 12  1  0
 12 13  2  0
 13 14  1  0
 14 15  2  0
 15 16  1  0
 16 17  2  0
 11 18  2  0
  1 19  1  0
 19 20  1  0
 19 21  1  0
  1 22  1  0
 22 23  2  0
 23 24  1  0
 24 25  1  0
 25 26  2  0
 26 27  1  0
 27 28  2  0
 28 29  1  0
 29 30  2  0
 24 31  1  0
 31 32  1  0
 32 33  2  0
 33 34  1  0
 34 35  2  0
 35 36  1  0
 36 37  2  0
 31 38  2  0
 18  2  1  0
 38 22  1  0
 10  5  1  0
 17 12  1  0
 30 25  1  0
 37 32  1  0
M  END
$$$$
Molecule_8
     RDKit          2D

 30 32  0  0  0  0  0  0  0  0999 V2000
    0.0893   -0.3258    0.0000 P   0  0  0  0  0  0  0  0  0  0  0  0
   -0.0860    1.1639    0.0000 C   0  0  0  0  0  0  0  0  0  0  0  0
   -1.4639    1.7569    0.0000 C   0  0  0  0  0  0  0  0  0  0  0  0
   -2.6663    0.8602    0.0000 O   0  0  0  0  0  0  0  0  0  0  0  0
   -3.9616    1.6167    0.0000 C   0  0  0  0  0  0  0  0  0  0  0  0
   -1.6392    3.2466    0.0000 C   0  0  0  0  0  0  0  0  0  0  0  0
   -0.4368    4.1434    0.0000 C   0  0  0  0  0  0  0  0  0  0  0  0
    0.9410    3.5504    0.0000 C   0  0  0  0  0  0  0  0  0  0  0  0
    1.1164    2.0607    0.0000 C   0  0  0  0  0  0  0  0  0  0  0  0
    2.4942    1.4677    0.0000 O   0  0  0  0  0  0  0  0  0  0  0  0
    3.5784    2.5043    0.0000 C   0  0  0  0  0  0  0  0  0  0  0  0
   -1.1131   -1.2225    0.0000 C   0  0  0  0  0  0  0  0  0  0  0  0
   -0.9377   -2.7122    0.0000 C   0  0  0  0  0  0  0  0  0  0  0  0
   -2.1402   -3.6090    0.0000 C   0  0  0  0  0  0  0  0  0  0  0  0
   -3.5180   -3.0160    0.0000 C   0  0  0  0  0  0  0  0  0  0  0  0
   -3.6934   -1.5263    0.0000 C   0  0  0  0  0  0  0  0  0  0  0  0
   -2.4909   -0.6295    0.0000 C   0  0  0  0  0  0  0  0  0  0  0  0
   -2.6663    0.8602    0.0000 N   0  0  0  0  0  0  0  0  0  0  0  0
   -4.1061    1.2808    0.0000 C   0  0  0  0  0  0  0  0  0  0  0  0
   -1.7166    2.0212    0.0000 C   0  0  0  0  0  0  0  0  0  0  0  0
    1.4672   -0.9188    0.0000 C   0  0  0  0  0  0  0  0  0  0  0  0
    1.6425   -2.4085    0.0000 C   0  0  0  0  0  0  0  0  0  0  0  0
    0.4401   -3.3052    0.0000 O   0  0  0  0  0  0  0  0  0  0  0  0
    0.6155   -4.7949    0.0000 C   0  0  0  0  0  0  0  0  0  0  0  0
    3.0204   -3.0014    0.0000 C   0  0  0  0  0  0  0  0  0  0  0  0
    4.2228   -2.1047    0.0000 C   0  0  0  0  0  0  0  0  0  0  0  0
    4.0474   -0.6150    0.0000 C   0  0  0  0  0  0  0  0  0  0  0  0
    2.6696   -0.0220    0.0000 C   0  0  0  0  0  0  0  0  0  0  0  0
    2.4942    1.4677    0.0000 O   0  0  0  0  0  0  0  0  0  0  0  0
    3.7970    2.2112    0.0000 C   0  0  0  0  0  0  0  0  0  0  0  0
  1  2  1  0
  2  3  2  0
  3  4  1  0
  4  5  1  0
  3  6  1  0
  6  7  2  0
  7  8  1  0
  8  9  2  0
  9 10  1  0
 10 11  1  0
  1 12  1  0
 12 13  2  0
 13 14  1  0
 14 15  2  0
 15 16  1  0
 16 17  2  0
 17 18  1  0
 18 19  1  0
 18 20  1  0
  1 21  1  0
 21 22  2  0
 22 23  1  0
 23 24  1  0
 22 25  1  0
 25 26  2  0
 26 27  1  0
 27 28  2  0
 28 29  1  0
 29 30  1  0
  9  2  1  0
 17 12  1  0
 28 21  1  0
M  END
$$$$
Molecule_9
     RDKit          2D

 32 35  0  0  0  0  0  0  0  0999 V2000
   -0.9192   -0.1670    0.0000 P   0  0  0  0  0  0  0  0  0  0  0  0
   -1.1798    1.3102    0.0000 C   0  0  0  0  0  0  0  0  0  0  0  0
   -2.5893    1.8232    0.0000 C   0  0  0  0  0  0  0  0  0  0  0  0
   -3.7383    0.8589    0.0000 O   0  0  0  0  0  0  0  0  0  0  0  0
   -5.0749    1.5399    0.0000 C   0  0  0  0  0  0  0  0  0  0  0  0
   -2.8499    3.3004    0.0000 C   0  0  0  0  0  0  0  0  0  0  0  0
   -1.7009    4.2646    0.0000 C   0  0  0  0  0  0  0  0  0  0  0  0
   -0.2913    3.7517    0.0000 C   0  0  0  0  0  0  0  0  0  0  0  0
   -0.0308    2.2745    0.0000 C   0  0  0  0  0  0  0  0  0  0  0  0
    1.3788    1.7615    0.0000 O   0  0  0  0  0  0  0  0  0  0  0  0
    2.5278    2.7258    0.0000 C   0  0  0  0  0  0  0  0  0  0  0  0
    0.4904   -0.6799    0.0000 C   0  0  0  0  0  0  0  0  0  0  0  0
    1.7339    0.1589    0.0000 N   0  0  0  0  0  0  0  0  0  0  0  0
    2.9159   -0.7645    0.0000 N   0  0  0  0  0  0  0  0  0  0  0  0
    4.3578   -0.3510    0.0000 C   0  0  0  0  0  0  0  0  0  0  0  0
    5.4369   -1.3929    0.0000 C   0  0  0  0  0  0  0  0  0  0  0  0
    6.8787   -0.9794    0.0000 C   0  0  0  0  0  0  0  0  0  0  0  0
    7.2415    0.4761    0.0000 C   0  0  0  0  0  0  0  0  0  0  0  0
    6.1625    1.5180    0.0000 C   0  0  0  0  0  0  0  0  0  0  0  0
    4.7206    1.1045    0.0000 C   0  0  0  0  0  0  0  0  0  0  0  0
    2.4030   -2.1741    0.0000 C   0  0  0  0  0  0  0  0  0  0  0  0
    0.9039   -2.1218    0.0000 C   0  0  0  0  0  0  0  0  0  0  0  0
   -2.0682   -1.1312    0.0000 C   0  0  0  0  0  0  0  0  0  0  0  0
   -3.4778   -0.6183    0.0000 C   0  0  0  0  0  0  0  0  0  0  0  0
   -3.7383    0.8589    0.0000 O   0  0  0  0  0  0  0  0  0  0  0  0
   -5.1999    1.1962    0.0000 C   0  0  0  0  0  0  0  0  0  0  0  0
   -4.6268   -1.5825    0.0000 C   0  0  0  0  0  0  0  0  0  0  0  0
   -4.3663   -3.0597    0.0000 C   0  0  0  0  0  0  0  0  0  0  0  0
   -2.9567   -3.5727    0.0000 C   0  0  0  0  0  0  0  0  0  0  0  0
   -1.8077   -2.6084    0.0000 C   0  0  0  0  0  0  0  0  0  0  0  0
   -0.3981   -3.1214    0.0000 O   0  0  0  0  0  0  0  0  0  0  0  0
   -0.1376   -4.5986    0.0000 C   0  0  0  0  0  0  0  0  0  0  0  0
  1  2  1  0
  2  3  2  0
  3  4  1  0
  4  5  1  0
  3  6  1  0
  6  7  2  0
  7  8  1  0
  8  9  2  0
  9 10  1  0
 10 11  1  0
  1 12  1  0
 12 13  2  0
 13 14  1  0
 14 15  1  0
 15 16  2  0
 16 17  1  0
 17 18  2  0
 18 19  1  0
 19 20  2  0
 14 21  1  0
 21 22  2  0
  1 23  1  0
 23 24  2  0
 24 25  1  0
 25 26  1  0
 24 27  1  0
 27 28  2  0
 28 29  1  0
 29 30  2  0
 30 31  1  0
 31 32  1  0
  9  2  1  0
 22 12  1  0
 30 23  1  0
 20 15  1  0
M  END
$$$$
Molecule_10
     RDKit          2D

 37 39  0  0  0  0  0  0  0  0999 V2000
   -0.0140    0.0478    0.0000 P   0  0  0  0  0  0  0  0  0  0  0  0
    1.2801    0.8063    0.0000 C   0  0  0  0  0  0  0  0  0  0  0  0
    2.5840    0.0649    0.0000 C   0  0  0  0  0  0  0  0  0  0  0  0
    2.5939   -1.4351    0.0000 N   0  0  0  0  0  0  0  0  0  0  0  0
    2.0242   -1.9926    0.0000 C   0  0  0  0  0  0  0  0  0  0  0  0
    4.0385   -1.8390    0.0000 C   0  0  0  0  0  0  0  0  0  0  0  0
    3.8781    0.8234    0.0000 C   0  0  0  0  0  0  0  0  0  0  0  0
    3.8683    2.3234    0.0000 C   0  0  0  0  0  0  0  0  0  0  0  0
    2.5643    3.0648    0.0000 C   0  0  0  0  0  0  0  0  0  0  0  0
    1.2702    2.3063    0.0000 C   0  0  0  0  0  0  0  0  0  0  0  0
   -0.0337    3.0477    0.0000 N   0  0  0  0  0  0  0  0  0  0  0  0
    0.1393    4.5377    0.0000 C   0  0  0  0  0  0  0  0  0  0  0  0
   -1.4729    2.6249    0.0000 C   0  0  0  0  0  0  0  0  0  0  0  0
   -0.0041   -1.4522    0.0000 C   0  0  0  0  0  0  0  0  0  0  0  0
   -1.2982   -2.2107    0.0000 C   0  0  0  0  0  0  0  0  0  0  0  0
   -2.6021   -1.4693    0.0000 O   0  0  0  0  0  0  0  0  0  0  0  0
   -3.8962   -2.2278    0.0000 C   0  0  0  0  0  0  0  0  0  0  0  0
   -5.2002   -1.4863    0.0000 C   0  0  0  0  0  0  0  0  0  0  0  0
   -1.2883   -3.7107    0.0000 C   0  0  0  0  0  0  0  0  0  0  0  0
    0.0156   -4.4521    0.0000 C   0  0  0  0  0  0  0  0  0  0  0  0
    1.3097   -3.6936    0.0000 C   0  0  0  0  0  0  0  0  0  0  0  0
    1.2998   -2.1936    0.0000 C   0  0  0  0  0  0  0  0  0  0  0  0
    2.5939   -1.4351    0.0000 O   0  0  0  0  0  0  0  0  0  0  0  0
    3.8978   -2.1765    0.0000 C   0  0  0  0  0  0  0  0  0  0  0  0
    5.1919   -1.4180    0.0000 C   0  0  0  0  0  0  0  0  0  0  0  0
   -1.3179    0.7892    0.0000 C   0  0  0  0  0  0  0  0  0  0  0  0
   -1.3278    2.2892    0.0000 C   0  0  0  0  0  0  0  0  0  0  0  0
   -0.0337    3.0477    0.0000 N   0  0  0  0  0  0  0  0  0  0  0  0
   -0.2263    4.5353    0.0000 C   0  0  0  0  0  0  0  0  0  0  0  0
    1.4109    2.6438    0.0000 C   0  0  0  0  0  0  0  0  0  0  0  0
   -2.6317    3.0306    0.0000 C   0  0  0  0  0  0  0  0  0  0  0  0
   -3.9258    2.2721    0.0000 C   0  0  0  0  0  0  0  0  0  0  0  0
   -3.9159    0.7722    0.0000 C   0  0  0  0  0  0  0  0  0  0  0  0
   -2.6120    0.0307    0.0000 C   0  0  0  0  0  0  0  0  0  0  0  0
   -2.6021   -1.4693    0.0000 N   0  0  0  0  0  0  0  0  0  0  0  0
   -4.0413   -1.8921    0.0000 C   0  0  0  0  0  0  0  0  0  0  0  0
   -1.5164   -2.5042    0.0000 C   0  0  0  0  0  0  0  0  0  0  0  0
  1  2  1  0
  2  3  2  0
  3  4  1  0
  4  5  1  0
  4  6  1  0
  3  7  1  0
  7  8  2  0
  8  9  1  0
  9 10  2  0
 10 11  1  0
 11 12  1  0
 11 13  1  0
  1 14  1  0
 14 15  2  0
 15 16  1  0
 16 17  1  0
 17 18  1  0
 15 19  1  0
 19 20  2  0
 20 21  1  0
 21 22  2  0
 22 23  1  0
 23 24  1  0
 24 25  1  0
  1 26  1  0
 26 27  2  0
 27 28  1  0
 28 29  1  0
 28 30  1  0
 27 31  1  0
 31 32  2  0
 32 33  1  0
 33 34  2  0
 34 35  1  0
 35 36  1  0
 35 37  1  0
 10  2  1  0
 22 14  1  0
 34 26  1  0
M  END
$$$$
Molecule_11
     RDKit          2D

 26 29  0  0  0  0  0  0  0  0999 V2000
    1.3135   -0.0205    0.0000 P   0  0  0  0  0  0  0  0  0  0  0  0
    2.5008    0.8961    0.0000 C   0  0  0  0  0  0  0  0  0  0  0  0
    3.8883    0.3262    0.0000 C   0  0  0  0  0  0  0  0  0  0  0  0
    5.0756    1.2429    0.0000 C   0  0  0  0  0  0  0  0  0  0  0  0
    4.8754    2.7295    0.0000 C   0  0  0  0  0  0  0  0  0  0  0  0
    3.4879    3.2994    0.0000 C   0  0  0  0  0  0  0  0  0  0  0  0
    2.3006    2.3827    0.0000 C   0  0  0  0  0  0  0  0  0  0  0  0
    0.9131    2.9527    0.0000 C   0  0  0  0  0  0  0  0  0  0  0  0
   -0.0740    0.5494    0.0000 C   0  0  0  0  0  0  0  0  0  0  0  0
   -1.3507   -0.2381    0.0000 N   0  0  0  0  0  0  0  0  0  0  0  0
   -2.4942    0.7327    0.0000 N   0  0  0  0  0  0  0  0  0  0  0  0
   -3.9517    0.3782    0.0000 C   0  0  0  0  0  0  0  0  0  0  0  0
   -4.9874    1.4632    0.0000 C   0  0  0  0  0  0  0  0  0  0  0  0
   -6.4449    1.1087    0.0000 C   0  0  0  0  0  0  0  0  0  0  0  0
   -6.8667   -0.3308    0.0000 C   0  0  0  0  0  0  0  0  0  0  0  0
   -5.8310   -1.4158    0.0000 C   0  0  0  0  0  0  0  0  0  0  0  0
   -4.3734   -1.0613    0.0000 C   0  0  0  0  0  0  0  0  0  0  0  0
   -1.9242    2.1202    0.0000 C   0  0  0  0  0  0  0  0  0  0  0  0
   -0.4285    2.0069    0.0000 C   0  0  0  0  0  0  0  0  0  0  0  0
    1.5137   -1.5071    0.0000 C   0  0  0  0  0  0  0  0  0  0  0  0
    0.3263   -2.4237    0.0000 C   0  0  0  0  0  0  0  0  0  0  0  0
    0.5265   -3.9103    0.0000 C   0  0  0  0  0  0  0  0  0  0  0  0
    1.9140   -4.4803    0.0000 C   0  0  0  0  0  0  0  0  0  0  0  0
    3.1014   -3.5636    0.0000 C   0  0  0  0  0  0  0  0  0  0  0  0
    2.9012   -2.0770    0.0000 C   0  0  0  0  0  0  0  0  0  0  0  0
    4.0885   -1.1604    0.0000 C   0  0  0  0  0  0  0  0  0  0  0  0
  1  2  1  0
  2  3  2  0
  3  4  1  0
  4  5  2  0
  5  6  1  0
  6  7  2  0
  7  8  1  0
  1  9  1  0
  9 10  2  0
 10 11  1  0
 11 12  1  0
 12 13  2  0
 13 14  1  0
 14 15  2  0
 15 16  1  0
 16 17  2  0
 11 18  1  0
 18 19  2  0
  1 20  1  0
 20 21  2  0
 21 22  1  0
 22 23  2  0
 23 24  1  0
 24 25  2  0
 25 26  1  0
  7  2  1  0
 19  9  1  0
 25 20  1  0
 17 12  1  0
M  END
$$$$
Molecule_12
     RDKit          2D

 27 31  0  0  0  0  0  0  0  0999 V2000
    0.0000   -0.8889    0.0000 P   0  0  0  0  0  0  0  0  0  0  0  0
   -1.2990   -1.6389    0.0000 C   0  0  0  0  0  0  0  0  0  0  0  0
   -2.5981   -0.8889    0.0000 C   0  0  0  0  0  0  0  0  0  0  0  0
   -3.8971   -1.6389    0.0000 C   0  0  0  0  0  0  0  0  0  0  0  0
   -3.8971   -3.1389    0.0000 C   0  0  0  0  0  0  0  0  0  0  0  0
   -2.5981   -3.8889    0.0000 C   0  0  0  0  0  0  0  0  0  0  0  0
   -1.2990   -3.1389    0.0000 C   0  0  0  0  0  0  0  0  0  0  0  0
   -0.0000    0.6111    0.0000 C   0  0  0  0  0  0  0  0  0  0  0  0
    1.2990    1.3611    0.0000 C   0  0  0  0  0  0  0  0  0  0  0  0
    2.5981    0.6111    0.0000 C   0  0  0  0  0  0  0  0  0  0  0  0
    3.8971    1.3611    0.0000 C   0  0  0  0  0  0  0  0  0  0  0  0
    3.8971    2.8611    0.0000 C   0  0  0  0  0  0  0  0  0  0  0  0
    2.5981    3.6111    0.0000 C   0  0  0  0  0  0  0  0  0  0  0  0
    1.2990    2.8611    0.0000 C   0  0  0  0  0  0  0  0  0  0  0  0
   -0.0000    3.6111    0.0000 C   0  0  0  0  0  0  0  0  0  0  0  0
   -1.2990    2.8611    0.0000 C   0  0  0  0  0  0  0  0  0  0  0  0
   -2.5981    3.6111    0.0000 C   0  0  0  0  0  0  0  0  0  0  0  0
   -3.8971    2.8611    0.0000 C   0  0  0  0  0  0  0  0  0  0  0  0
   -3.8971    1.3611    0.0000 C   0  0  0  0  0  0  0  0  0  0  0  0
   -2.5981    0.6111    0.0000 C   0  0  0  0  0  0  0  0  0  0  0  0
   -1.2990    1.3611    0.0000 C   0  0  0  0  0  0  0  0  0  0  0  0
    1.2990   -1.6389    0.0000 C   0  0  0  0  0  0  0  0  0  0  0  0
    1.2990   -3.1389    0.0000 C   0  0  0  0  0  0  0  0  0  0  0  0
    2.5981   -3.8889    0.0000 C   0  0  0  0  0  0  0  0  0  0  0  0
    3.8971   -3.1389    0.0000 C   0  0  0  0  0  0  0  0  0  0  0  0
    3.8971   -1.6389    0.0000 C   0  0  0  0  0  0  0  0  0  0  0  0
    2.5981   -0.8889    0.0000 C   0  0  0  0  0  0  0  0  0  0  0  0
  1  2  1  0
  2  3  2  0
  3  4  1  0
  4  5  2  0
  5  6  1  0
  6  7  2  0
  1  8  1  0
  8  9  1  0
  9 10  2  0
 10 11  1  0
 11 12  2  0
 12 13  1  0
 13 14  2  0
 14 15  1  0
 15 16  2  0
 16 17  1  0
 17 18  2  0
 18 19  1  0
 19 20  2  0
 20 21  1  0
  1 22  1  0
 22 23  2  0
 23 24  1  0
 24 25  2  0
 25 26  1  0
 26 27  2  0
  7  2  1  0
 21  8  2  0
 27 22  1  0
 14  9  1  0
 21 16  1  0
M  END
$$$$
Molecule_13
     RDKit          2D

 35 39  0  0  0  0  0  0  0  0999 V2000
   -0.2728    0.1172    0.0000 P   0  0  0  0  0  0  0  0  0  0  0  0
   -1.7624   -0.0594    0.0000 C   0  0  0  0  0  0  0  0  0  0  0  0
   -2.6601    1.1424    0.0000 C   0  0  0  0  0  0  0  0  0  0  0  0
   -4.1496    0.9659    0.0000 C   0  0  0  0  0  0  0  0  0  0  0  0
   -4.7416   -0.4124    0.0000 C   0  0  0  0  0  0  0  0  0  0  0  0
   -3.8439   -1.6142    0.0000 C   0  0  0  0  0  0  0  0  0  0  0  0
   -4.4358   -2.9924    0.0000 O   0  0  0  0  0  0  0  0  0  0  0  0
   -5.9254   -3.1690    0.0000 C   0  0  0  0  0  0  0  0  0  0  0  0
   -6.5173   -4.5472    0.0000 C   0  0  0  0  0  0  0  0  0  0  0  0
   -6.8230   -1.9672    0.0000 C   0  0  0  0  0  0  0  0  0  0  0  0
   -2.3543   -1.4376    0.0000 C   0  0  0  0  0  0  0  0  0  0  0  0
    0.3191    1.4954    0.0000 C   0  0  0  0  0  0  0  0  0  0  0  0
    1.8087    1.6720    0.0000 C   0  0  0  0  0  0  0  0  0  0  0  0
    2.7063    0.4702    0.0000 C   0  0  0  0  0  0  0  0  0  0  0  0
    4.1959    0.6468    0.0000 C   0  0  0  0  0  0  0  0  0  0  0  0
    4.7878    2.0250    0.0000 C   0  0  0  0  0  0  0  0  0  0  0  0
    3.8901    3.2268    0.0000 C   0  0  0  0  0  0  0  0  0  0  0  0
    2.4006    3.0502    0.0000 C   0  0  0  0  0  0  0  0  0  0  0  0
    1.5029    4.2520    0.0000 C   0  0  0  0  0  0  0  0  0  0  0  0
    0.0133    4.0755    0.0000 C   0  0  0  0  0  0  0  0  0  0  0  0
   -0.8843    5.2772    0.0000 C   0  0  0  0  0  0  0  0  0  0  0  0
   -2.3739    5.1007    0.0000 C   0  0  0  0  0  0  0  0  0  0  0  0
   -2.9658    3.7224    0.0000 C   0  0  0  0  0  0  0  0  0  0  0  0
   -2.0682    2.5207    0.0000 C   0  0  0  0  0  0  0  0  0  0  0  0
   -0.5786    2.6972    0.0000 C   0  0  0  0  0  0  0  0  0  0  0  0
    0.6248   -1.0846    0.0000 C   0  0  0  0  0  0  0  0  0  0  0  0
    0.0329   -2.4629    0.0000 C   0  0  0  0  0  0  0  0  0  0  0  0
    0.9306   -3.6646    0.0000 C   0  0  0  0  0  0  0  0  0  0  0  0
    2.4202   -3.4881    0.0000 C   0  0  0  0  0  0  0  0  0  0  0  0
    3.0121   -2.1098    0.0000 C   0  0  0  0  0  0  0  0  0  0  0  0
    4.5017   -1.9333    0.0000 O   0  0  0  0  0  0  0  0  0  0  0  0
    5.3993   -3.1350    0.0000 C   0  0  0  0  0  0  0  0  0  0  0  0
    6.8889   -2.9585    0.0000 C   0  0  0  0  0  0  0  0  0  0  0  0
    4.8074   -4.5133    0.0000 C   0  0  0  0  0  0  0  0  0  0  0  0
    2.1144   -0.9080    0.0000 C   0  0  0  0  0  0  0  0  0  0  0  0
  1  2  1  0
  2  3  2  0
  3  4  1  0
  4  5  2  0
  5  6  1  0
  6  7  1  0
  7  8  1  0
  8  9  1  0
  8 10  1  0
  6 11  2  0
  1 12  1  0
 12 13  1  0
 13 14  2  0
 14 15  1  0
 15 16  2  0
 16 17  1  0
 17 18  2  0
 18 19  1  0
 19 20  2  0
 20 21  1  0
 21 22  2  0
 22 23  1  0
 23 24  2  0
 24 25  1  0
  1 26  1  0
 26 27  2  0
 27 28  1  0
 28 29  2  0
 29 30  1  0
 30 31  1  0
 31 32  1  0
 32 33  1  0
 32 34  1  0
 30 35  2  0
 11  2  1  0
 25 12  2  0
 35 26  1  0
 18 13  1  0
 25 20  1  0
M  END
$$$$
Molecule_14
     RDKit          2D

 38 44  0  0  0  0  0  0  0  0999 V2000
   -1.0039    0.3167    0.0000 P   0  0  0  0  0  0  0  0  0  0  0  0
   -0.9285   -1.1814    0.0000 C   0  0  0  0  0  0  0  0  0  0  0  0
    0.3278   -2.0010    0.0000 N   0  0  0  0  0  0  0  0  0  0  0  0
   -0.0635   -3.4491    0.0000 N   0  0  0  0  0  0  0  0  0  0  0  0
    0.8781   -4.6168    0.0000 C   0  0  0  0  0  0  0  0  0  0  0  0
    0.3376   -6.0160    0.0000 C   0  0  0  0  0  0  0  0  0  0  0  0
    1.2792   -7.1837    0.0000 C   0  0  0  0  0  0  0  0  0  0  0  0
    2.7612   -6.9521    0.0000 C   0  0  0  0  0  0  0  0  0  0  0  0
    3.3016   -5.5529    0.0000 C   0  0  0  0  0  0  0  0  0  0  0  0
    2.3601   -4.3852    0.0000 C   0  0  0  0  0  0  0  0  0  0  0  0
   -1.5616   -3.5245    0.0000 C   0  0  0  0  0  0  0  0  0  0  0  0
   -2.0962   -2.1230    0.0000 C   0  0  0  0  0  0  0  0  0  0  0  0
    0.2558    1.1310    0.0000 C   0  0  0  0  0  0  0  0  0  0  0  0
    1.5909    0.4472    0.0000 C   0  0  0  0  0  0  0  0  0  0  0  0
    2.8506    1.2616    0.0000 C   0  0  0  0  0  0  0  0  0  0  0  0
    2.7752    2.7597    0.0000 C   0  0  0  0  0  0  0  0  0  0  0  0
    4.0349    3.5740    0.0000 C   0  0  0  0  0  0  0  0  0  0  0  0
    5.0556    2.4749    0.0000 C   0  0  0  0  0  0  0  0  0  0  0  0
    4.6141    1.0413    0.0000 C   0  0  0  0  0  0  0  0  0  0  0  0
    5.6348   -0.0578    0.0000 C   0  0  0  0  0  0  0  0  0  0  0  0
    7.0970    0.2765    0.0000 C   0  0  0  0  0  0  0  0  0  0  0  0
    7.5386    1.7101    0.0000 C   0  0  0  0  0  0  0  0  0  0  0  0
    6.5179    2.8092    0.0000 C   0  0  0  0  0  0  0  0  0  0  0  0
    4.9401    4.7701    0.0000 C   0  0  0  0  0  0  0  0  0  0  0  0
    3.4517    4.9560    0.0000 C   0  0  0  0  0  0  0  0  0  0  0  0
    1.4401    3.4435    0.0000 C   0  0  0  0  0  0  0  0  0  0  0  0
    0.1804    2.6291    0.0000 C   0  0  0  0  0  0  0  0  0  0  0  0
   -2.3390    1.0005    0.0000 C   0  0  0  0  0  0  0  0  0  0  0  0
   -3.6769    0.3223    0.0000 N   0  0  0  0  0  0  0  0  0  0  0  0
   -4.7354    1.3851    0.0000 N   0  0  0  0  0  0  0  0  0  0  0  0
   -6.2174    1.1536    0.0000 C   0  0  0  0  0  0  0  0  0  0  0  0
   -7.1589    2.3212    0.0000 C   0  0  0  0  0  0  0  0  0  0  0  0
   -8.6409    2.0897    0.0000 C   0  0  0  0  0  0  0  0  0  0  0  0
   -9.1814    0.6904    0.0000 C   0  0  0  0  0  0  0  0  0  0  0  0
   -8.2399   -0.4772    0.0000 C   0  0  0  0  0  0  0  0  0  0  0  0
   -6.7578   -0.2457    0.0000 C   0  0  0  0  0  0  0  0  0  0  0  0
   -4.0516    2.7202    0.0000 C   0  0  0  0  0  0  0  0  0  0  0  0
   -2.5705    2.4825    0.0000 C   0  0  0  0  0  0  0  0  0  0  0  0
  1  2  1  0
  2  3  2  0
  3  4  1  0
  4  5  1  0
  5  6  2  0
  6  7  1  0
  7  8  2  0
  8  9  1  0
  9 10  2  0
  4 11  1  0
 11 12  2  0
  1 13  1  0
 13 14  2  0
 14 15  1  0
 15 16  2  0
 16 17  1  0
 17 18  1  0
 18 19  2  0
 19 20  1  0
 20 21  2  0
 21 22  1  0
 22 23  2  0
 17 24  1  0
 24 25  1  0
 16 26  1  0
 26 27  2  0
  1 28  1  0
 28 29  2  0
 29 30  1  0
 30 31  1  0
 31 32  2  0
 32 33  1  0
 33 34  2  0
 34 35  1  0
 35 36  2  0
 30 37  1  0
 37 38  2  0
 12  2  1  0
 27 13  1  0
 38 28  1  0
 10  5  1  0
 25 17  1  0
 36 31  1  0
 23 18  1  0
M  END
$$$$
Molecule_15
     RDKit          2D

 28 31  0  0  0  0  0  0  0  0999 V2000
   -0.0000    0.8431    0.0000 P   0  0  0  0  0  0  0  0  0  0  0  0
    1.2990    1.5931    0.0000 C   0  0  0  0  0  0  0  0  0  0  0  0
    1.2990    3.0931    0.0000 C   0  0  0  0  0  0  0  0  0  0  0  0
    2.5981    3.8431    0.0000 C   0  0  0  0  0  0  0  0  0  0  0  0
    3.8971    3.0931    0.0000 C   0  0  0  0  0  0  0  0  0  0  0  0
    3.8971    1.5931    0.0000 C   0  0  0  0  0  0  0  0  0  0  0  0
    2.5981    0.8431    0.0000 C   0  0  0  0  0  0  0  0  0  0  0  0
    2.5981   -0.6569    0.0000 N   0  0  0  0  0  0  0  0  0  0  0  0
    3.8971   -1.4069    0.0000 C   0  0  0  0  0  0  0  0  0  0  0  0
    3.8971   -2.9069    0.0000 C   0  0  0  0  0  0  0  0  0  0  0  0
    2.5981   -3.6569    0.0000 C   0  0  0  0  0  0  0  0  0  0  0  0
    1.2990   -2.9069    0.0000 C   0  0  0  0  0  0  0  0  0  0  0  0
    1.2990   -1.4069    0.0000 C   0  0  0  0  0  0  0  0  0  0  0  0
   -0.0000   -0.6569    0.0000 C   0  0  0  0  0  0  0  0  0  0  0  0
   -0.5734   -1.2107    0.0000 C   0  0  0  0  0  0  0  0  0  0  0  0
    0.5734   -1.2107    0.0000 C   0  0  0  0  0  0  0  0  0  0  0  0
   -1.2990    1.5931    0.0000 C   0  0  0  0  0  0  0  0  0  0  0  0
   -1.2990    3.0931    0.0000 C   0  0  0  0  0  0  0  0  0  0  0  0
   -2.5981    3.8431    0.0000 C   0  0  0  0  0  0  0  0  0  0  0  0
   -3.8971    3.0931    0.0000 C   0  0  0  0  0  0  0  0  0  0  0  0
   -3.8971    1.5931    0.0000 C   0  0  0  0  0  0  0  0  0  0  0  0
   -2.5981    0.8431    0.0000 C   0  0  0  0  0  0  0  0  0  0  0  0
   -2.5981   -0.6569    0.0000 N   0  0  0  0  0  0  0  0  0  0  0  0
   -3.8971   -1.4069    0.0000 C   0  0  0  0  0  0  0  0  0  0  0  0
   -3.8971   -2.9069    0.0000 C   0  0  0  0  0  0  0  0  0  0  0  0
   -2.5981   -3.6569    0.0000 C   0  0  0  0  0  0  0  0  0  0  0  0
   -1.2990   -2.9069    0.0000 C   0  0  0  0  0  0  0  0  0  0  0  0
   -1.2990   -1.4069    0.0000 C   0  0  0  0  0  0  0  0  0  0  0  0
  1  2  1  0
  2  3  2  0
  3  4  1  0
  4  5  2  0
  5  6  1  0
  6  7  2  0
  7  8  1  0
  8  9  1  0
  9 10  1  0
 10 11  1  0
 11 12  1  0
 12 13  1  0
  1 14  1  0
 14 15  1  0
 14 16  1  0
  1 17  1  0
 17 18  2  0
 18 19  1  0
 19 20  2  0
 20 21  1  0
 21 22  2  0
 22 23  1  0
 23 24  1  0
 24 25  1  0
 25 26  1  0
 26 27  1  0
 27 28  1  0
  7  2  1  0
 13  8  1  0
 22 17  1  0
 28 23  1  0
M  END
$$$$
Molecule_16
     RDKit          2D

 41 43  0  0  0  0  0  0  0  0999 V2000
    0.1313   -0.0226    0.0000 P   0  0  0  0  0  0  0  0  0  0  0  0
    1.0533   -1.2059    0.0000 C   0  0  0  0  0  0  0  0  0  0  0  0
    0.4896   -2.5959    0.0000 C   0  0  0  0  0  0  0  0  0  0  0  0
   -0.9961   -2.8027    0.0000 O   0  0  0  0  0  0  0  0  0  0  0  0
   -1.9181   -1.6195    0.0000 C   0  0  0  0  0  0  0  0  0  0  0  0
   -3.3095   -2.1797    0.0000 C   0  0  0  0  0  0  0  0  0  0  0  0
   -1.7074   -0.1344    0.0000 C   0  0  0  0  0  0  0  0  0  0  0  0
    1.4115   -3.7791    0.0000 C   0  0  0  0  0  0  0  0  0  0  0  0
    2.8972   -3.5723    0.0000 C   0  0  0  0  0  0  0  0  0  0  0  0
    3.4609   -2.1823    0.0000 C   0  0  0  0  0  0  0  0  0  0  0  0
    2.5390   -0.9990    0.0000 C   0  0  0  0  0  0  0  0  0  0  0  0
    3.1027    0.3910    0.0000 O   0  0  0  0  0  0  0  0  0  0  0  0
    4.5884    0.5978    0.0000 C   0  0  0  0  0  0  0  0  0  0  0  0
    5.1521    1.9879    0.0000 C   0  0  0  0  0  0  0  0  0  0  0  0
    5.5103   -0.5854    0.0000 C   0  0  0  0  0  0  0  0  0  0  0  0
    0.6951    1.3674    0.0000 C   0  0  0  0  0  0  0  0  0  0  0  0
    2.1807    1.5742    0.0000 C   0  0  0  0  0  0  0  0  0  0  0  0
    3.1027    0.3910    0.0000 N   0  0  0  0  0  0  0  0  0  0  0  0
    4.4942    0.9512    0.0000 C   0  0  0  0  0  0  0  0  0  0  0  0
    2.8921   -1.0941    0.0000 C   0  0  0  0  0  0  0  0  0  0  0  0
    2.7445    2.9643    0.0000 C   0  0  0  0  0  0  0  0  0  0  0  0
    1.8225    4.1475    0.0000 C   0  0  0  0  0  0  0  0  0  0  0  0
    0.3368    3.9407    0.0000 C   0  0  0  0  0  0  0  0  0  0  0  0
   -0.2269    2.5506    0.0000 C   0  0  0  0  0  0  0  0  0  0  0  0
   -1.7126    2.3438    0.0000 N   0  0  0  0  0  0  0  0  0  0  0  0
   -2.3208    3.7149    0.0000 C   0  0  0  0  0  0  0  0  0  0  0  0
   -2.5959    1.1315    0.0000 C   0  0  0  0  0  0  0  0  0  0  0  0
   -1.3543   -0.2295    0.0000 C   0  0  0  0  0  0  0  0  0  0  0  0
   -2.2763    0.9537    0.0000 C   0  0  0  0  0  0  0  0  0  0  0  0
   -1.7126    2.3438    0.0000 O   0  0  0  0  0  0  0  0  0  0  0  0
   -2.6345    3.5270    0.0000 C   0  0  0  0  0  0  0  0  0  0  0  0
   -2.0708    4.9171    0.0000 C   0  0  0  0  0  0  0  0  0  0  0  0
   -4.1202    3.3202    0.0000 C   0  0  0  0  0  0  0  0  0  0  0  0
   -3.7620    0.7469    0.0000 C   0  0  0  0  0  0  0  0  0  0  0  0
   -4.3257   -0.6431    0.0000 C   0  0  0  0  0  0  0  0  0  0  0  0
   -3.4037   -1.8263    0.0000 C   0  0  0  0  0  0  0  0  0  0  0  0
   -1.9181   -1.6195    0.0000 C   0  0  0  0  0  0  0  0  0  0  0  0
   -0.9961   -2.8027    0.0000 O   0  0  0  0  0  0  0  0  0  0  0  0
   -1.5598   -4.1928    0.0000 C   0  0  0  0  0  0  0  0  0  0  0  0
   -0.6379   -5.3760    0.0000 C   0  0  0  0  0  0  0  0  0  0  0  0
   -3.0455   -4.3996    0.0000 C   0  0  0  0  0  0  0  0  0  0  0  0
  1  2  1  0
  2  3  2  0
  3  4  1  0
  4  5  1  0
  5  6  1  0
  5  7  1  0
  3  8  1  0
  8  9  2  0
  9 10  1  0
 10 11  2  0
 11 12  1  0
 12 13  1  0
 13 14  1  0
 13 15  1  0
  1 16  1  0
 16 17  2  0
 17 18  1  0
 18 19  1  0
 18 20  1  0
 17 21  1  0
 21 22  2  0
 22 23  1  0
 23 24  2  0
 24 25  1  0
 25 26  1  0
 25 27  1  0
  1 28  1  0
 28 29  2  0
 29 30  1  0
 30 31  1  0
 31 32  1  0
 31 33  1  0
 29 34  1  0
 34 35  2  0
 35 36  1  0
 36 37  2  0
 37 38  1  0
 38 39  1  0
 39 40  1  0
 39 41  1  0
 11  2  1  0
 24 16  1  0
 37 28  1  0
M  END
$$$$
Molecule_17
     RDKit          2D

 25 28  0  0  0  0  0  0  0  0999 V2000
    0.9525   -0.0000    0.0000 P   0  0  0  0  0  0  0  0  0  0  0  0
    2.3698    0.4910    0.0000 C   0  0  0  0  0  0  0  0  0  0  0  0
    3.5037   -0.4910    0.0000 C   0  0  0  0  0  0  0  0  0  0  0  0
    4.9211   -0.0000    0.0000 C   0  0  0  0  0  0  0  0  0  0  0  0
    5.2046    1.4730    0.0000 C   0  0  0  0  0  0  0  0  0  0  0  0
    4.0707    2.4550    0.0000 C   0  0  0  0  0  0  0  0  0  0  0  0
    2.6533    1.9640    0.0000 C   0  0  0  0  0  0  0  0  0  0  0  0
    0.6690   -1.4730    0.0000 C   0  0  0  0  0  0  0  0  0  0  0  0
    1.8029   -2.4550    0.0000 C   0  0  0  0  0  0  0  0  0  0  0  0
    1.5194   -3.9279    0.0000 C   0  0  0  0  0  0  0  0  0  0  0  0
    0.1021   -4.4189    0.0000 C   0  0  0  0  0  0  0  0  0  0  0  0
   -1.0318   -3.4369    0.0000 C   0  0  0  0  0  0  0  0  0  0  0  0
   -0.7484   -1.9640    0.0000 C   0  0  0  0  0  0  0  0  0  0  0  0
   -1.8823   -0.9820    0.0000 N   0  0  0  0  0  0  0  0  0  0  0  0
   -3.2996   -1.4730    0.0000 C   0  0  0  0  0  0  0  0  0  0  0  0
   -4.4335   -0.4910    0.0000 C   0  0  0  0  0  0  0  0  0  0  0  0
   -4.1500    0.9820    0.0000 C   0  0  0  0  0  0  0  0  0  0  0  0
   -2.7327    1.4730    0.0000 C   0  0  0  0  0  0  0  0  0  0  0  0
   -1.5988    0.4910    0.0000 C   0  0  0  0  0  0  0  0  0  0  0  0
   -0.1814    0.9820    0.0000 C   0  0  0  0  0  0  0  0  0  0  0  0
    0.1021    2.4550    0.0000 C   0  0  0  0  0  0  0  0  0  0  0  0
   -1.0318    3.4369    0.0000 C   0  0  0  0  0  0  0  0  0  0  0  0
   -2.4492    2.9459    0.0000 C   0  0  0  0  0  0  0  0  0  0  0  0
   -2.7327    1.4730    0.0000 C   0  0  0  0  0  0  0  0  0  0  0  0
   -1.5988    0.4910    0.0000 C   0  0  0  0  0  0  0  0  0  0  0  0
  1  2  1  0
  2  3  2  0
  3  4  1  0
  4  5  2  0
  5  6  1  0
  6  7  2  0
  1  8  1  0
  8  9  2  0
  9 10  1  0
 10 11  2  0
 11 12  1  0
 12 13  2  0
 13 14  1  0
 14 15  1  0
 15 16  1  0
 16 17  1  0
 17 18  1  0
 18 19  1  0
  1 20  1  0
 20 21  2  0
 21 22  1  0
 22 23  2  0
 23 24  1  0
 24 25  2  0
  7  2  1  0
 13  8  1  0
 19 14  1  0
 25 20  1  0
M  END
$$$$
Molecule_18
     RDKit          2D

 22 24  0  0  0  0  0  0  0  0999 V2000
   -0.4685   -0.0087    0.0000 P   0  0  0  0  0  0  0  0  0  0  0  0
    0.3528    1.2465    0.0000 C   0  0  0  0  0  0  0  0  0  0  0  0
    1.8505    1.1628    0.0000 C   0  0  0  0  0  0  0  0  0  0  0  0
    2.6718    2.4179    0.0000 C   0  0  0  0  0  0  0  0  0  0  0  0
    1.9955    3.7568    0.0000 N   0  0  0  0  0  0  0  0  0  0  0  0
    0.4978    3.8405    0.0000 C   0  0  0  0  0  0  0  0  0  0  0  0
   -0.3235    2.5853    0.0000 C   0  0  0  0  0  0  0  0  0  0  0  0
    0.2078   -1.3476    0.0000 C   0  0  0  0  0  0  0  0  0  0  0  0
   -0.6135   -2.6027    0.0000 C   0  0  0  0  0  0  0  0  0  0  0  0
    0.0629   -3.9416    0.0000 C   0  0  0  0  0  0  0  0  0  0  0  0
    1.5605   -4.0253    0.0000 C   0  0  0  0  0  0  0  0  0  0  0  0
    2.3819   -2.7701    0.0000 C   0  0  0  0  0  0  0  0  0  0  0  0
    1.7055   -1.4313    0.0000 C   0  0  0  0  0  0  0  0  0  0  0  0
    2.5268   -0.1761    0.0000 N   0  0  0  0  0  0  0  0  0  0  0  0
    4.0245   -0.2598    0.0000 C   0  0  0  0  0  0  0  0  0  0  0  0
    2.3502    0.6013    0.0000 C   0  0  0  0  0  0  0  0  0  0  0  0
   -1.9662    0.0750    0.0000 C   0  0  0  0  0  0  0  0  0  0  0  0
   -2.6425    1.4139    0.0000 C   0  0  0  0  0  0  0  0  0  0  0  0
   -4.1402    1.4976    0.0000 C   0  0  0  0  0  0  0  0  0  0  0  0
   -4.9615    0.2424    0.0000 N   0  0  0  0  0  0  0  0  0  0  0  0
   -4.2851   -1.0965    0.0000 C   0  0  0  0  0  0  0  0  0  0  0  0
   -2.7875   -1.1802    0.0000 C   0  0  0  0  0  0  0  0  0  0  0  0
  1  2  1  0
  2  3  2  0
  3  4  1  0
  4  5  2  0
  5  6  1  0
  6  7  2  0
  1  8  1  0
  8  9  2  0
  9 10  1  0
 10 11  2  0
 11 12  1  0
 12 13  2  0
 13 14  1  0
 14 15  1  0
 14 16  1  0
  1 17  1  0
 17 18  2  0
 18 19  1  0
 19 20  2  0
 20 21  1  0
 21 22  2  0
  7  2  1  0
 13  8  1  0
 22 17  1  0
M  END
$$$$
Molecule_19
     RDKit          2D

 32 36  0  0  0  0  0  0  0  0999 V2000
    0.0085   -0.6562    0.0000 P   0  0  0  0  0  0  0  0  0  0  0  0
    0.9516   -1.8227    0.0000 C   0  0  0  0  0  0  0  0  0  0  0  0
    0.4129   -3.2226    0.0000 C   0  0  0  0  0  0  0  0  0  0  0  0
    1.3560   -4.3891    0.0000 C   0  0  0  0  0  0  0  0  0  0  0  0
    2.8377   -4.1556    0.0000 C   0  0  0  0  0  0  0  0  0  0  0  0
    3.3763   -2.7556    0.0000 C   0  0  0  0  0  0  0  0  0  0  0  0
    2.4333   -1.5892    0.0000 C   0  0  0  0  0  0  0  0  0  0  0  0
    2.9719   -0.1892    0.0000 N   0  0  0  0  0  0  0  0  0  0  0  0
    4.4536    0.0443    0.0000 C   0  0  0  0  0  0  0  0  0  0  0  0
    4.9923    1.4442    0.0000 C   0  0  0  0  0  0  0  0  0  0  0  0
    4.0492    2.6107    0.0000 C   0  0  0  0  0  0  0  0  0  0  0  0
    2.5675    2.3772    0.0000 C   0  0  0  0  0  0  0  0  0  0  0  0
    2.0289    0.9772    0.0000 C   0  0  0  0  0  0  0  0  0  0  0  0
   -1.4732   -0.8897    0.0000 C   0  0  0  0  0  0  0  0  0  0  0  0
   -2.4163    0.2768    0.0000 C   0  0  0  0  0  0  0  0  0  0  0  0
   -3.8980    0.0433    0.0000 C   0  0  0  0  0  0  0  0  0  0  0  0
   -4.4367   -1.3567    0.0000 C   0  0  0  0  0  0  0  0  0  0  0  0
   -3.4936   -2.5231    0.0000 C   0  0  0  0  0  0  0  0  0  0  0  0
   -2.0119   -2.2896    0.0000 C   0  0  0  0  0  0  0  0  0  0  0  0
   -1.0688   -3.4561    0.0000 C   0  0  0  0  0  0  0  0  0  0  0  0
    0.5471    0.7438    0.0000 C   0  0  0  0  0  0  0  0  0  0  0  0
    2.0289    0.9772    0.0000 C   0  0  0  0  0  0  0  0  0  0  0  0
    2.5675    2.3772    0.0000 C   0  0  0  0  0  0  0  0  0  0  0  0
    1.6245    3.5436    0.0000 C   0  0  0  0  0  0  0  0  0  0  0  0
    0.1427    3.3102    0.0000 C   0  0  0  0  0  0  0  0  0  0  0  0
   -0.3959    1.9102    0.0000 C   0  0  0  0  0  0  0  0  0  0  0  0
   -1.8776    1.6767    0.0000 N   0  0  0  0  0  0  0  0  0  0  0  0
   -2.8207    2.8432    0.0000 C   0  0  0  0  0  0  0  0  0  0  0  0
   -4.3024    2.6097    0.0000 C   0  0  0  0  0  0  0  0  0  0  0  0
   -4.8411    1.2098    0.0000 C   0  0  0  0  0  0  0  0  0  0  0  0
   -3.8980    0.0433    0.0000 C   0  0  0  0  0  0  0  0  0  0  0  0
   -2.4163    0.2768    0.0000 C   0  0  0  0  0  0  0  0  0  0  0  0
  1  2  1  0
  2  3  2  0
  3  4  1  0
  4  5  2  0
  5  6  1  0
  6  7  2  0
  7  8  1  0
  8  9  1  0
  9 10  1  0
 10 11  1  0
 11 12  1  0
 12 13  1  0
  1 14  1  0
 14 15  2  0
 15 16  1  0
 16 17  2  0
 17 18  1  0
 18 19  2  0
 19 20  1  0
  1 21  1  0
 21 22  2  0
 22 23  1  0
 23 24  2  0
 24 25  1  0
 25 26  2  0
 26 27  1  0
 27 28  1  0
 28 29  1  0
 29 30  1  0
 30 31  1  0
 31 32  1  0
  7  2  1  0
 13  8  1  0
 19 14  1  0
 26 21  1  0
 32 27  1  0
M  END
$$$$
Molecule_20
     RDKit          2D

 46 53  0  0  0  0  0  0  0  0999 V2000
   -0.0000    0.8769    0.0000 P   0  0  0  0  0  0  0  0  0  0  0  0
    1.4852    0.6669    0.0000 C   0  0  0  0  0  0  0  0  0  0  0  0
    2.5281    1.7451    0.0000 N   0  0  0  0  0  0  0  0  0  0  0  0
    3.8758    1.0864    0.0000 N   0  0  0  0  0  0  0  0  0  0  0  0
    5.2007    1.7896    0.0000 C   0  0  0  0  0  0  0  0  0  0  0  0
    6.4722    0.9937    0.0000 C   0  0  0  0  0  0  0  0  0  0  0  0
    7.7972    1.6968    0.0000 C   0  0  0  0  0  0  0  0  0  0  0  0
    7.8507    3.1958    0.0000 C   0  0  0  0  0  0  0  0  0  0  0  0
    6.5793    3.9918    0.0000 C   0  0  0  0  0  0  0  0  0  0  0  0
    5.2543    3.2886    0.0000 C   0  0  0  0  0  0  0  0  0  0  0  0
    3.6658   -0.3988    0.0000 C   0  0  0  0  0  0  0  0  0  0  0  0
    4.7440   -1.4417    0.0000 C   0  0  0  0  0  0  0  0  0  0  0  0
    4.3799   -2.8968    0.0000 C   0  0  0  0  0  0  0  0  0  0  0  0
    5.4581   -3.9397    0.0000 C   0  0  0  0  0  0  0  0  0  0  0  0
    6.9003   -3.5274    0.0000 C   0  0  0  0  0  0  0  0  0  0  0  0
    7.2643   -2.0722    0.0000 C   0  0  0  0  0  0  0  0  0  0  0  0
    6.1862   -1.0294    0.0000 C   0  0  0  0  0  0  0  0  0  0  0  0
    2.1884   -0.6581    0.0000 C   0  0  0  0  0  0  0  0  0  0  0  0
   -0.5608    2.2681    0.0000 C   0  0  0  0  0  0  0  0  0  0  0  0
   -2.0159    2.6322    0.0000 N   0  0  0  0  0  0  0  0  0  0  0  0
   -2.1194    4.1286    0.0000 N   0  0  0  0  0  0  0  0  0  0  0  0
   -3.3908    4.9245    0.0000 C   0  0  0  0  0  0  0  0  0  0  0  0
   -3.3372    6.4236    0.0000 C   0  0  0  0  0  0  0  0  0  0  0  0
   -4.6086    7.2195    0.0000 C   0  0  0  0  0  0  0  0  0  0  0  0
   -5.9336    6.5163    0.0000 C   0  0  0  0  0  0  0  0  0  0  0  0
   -5.9872    5.0173    0.0000 C   0  0  0  0  0  0  0  0  0  0  0  0
   -4.7158    4.2214    0.0000 C   0  0  0  0  0  0  0  0  0  0  0  0
   -0.7281    4.6894    0.0000 C   0  0  0  0  0  0  0  0  0  0  0  0
    0.2351    3.5395    0.0000 C   0  0  0  0  0  0  0  0  0  0  0  0
   -0.9244   -0.3044    0.0000 C   0  0  0  0  0  0  0  0  0  0  0  0
   -0.5122   -1.7466    0.0000 N   0  0  0  0  0  0  0  0  0  0  0  0
   -1.7564   -2.5844    0.0000 N   0  0  0  0  0  0  0  0  0  0  0  0
   -1.8100   -4.0834    0.0000 C   0  0  0  0  0  0  0  0  0  0  0  0
   -3.1350   -4.7866    0.0000 C   0  0  0  0  0  0  0  0  0  0  0  0
   -3.1885   -6.2856    0.0000 C   0  0  0  0  0  0  0  0  0  0  0  0
   -1.9171   -7.0815    0.0000 C   0  0  0  0  0  0  0  0  0  0  0  0
   -0.5921   -6.3784    0.0000 C   0  0  0  0  0  0  0  0  0  0  0  0
   -0.5385   -4.8793    0.0000 C   0  0  0  0  0  0  0  0  0  0  0  0
   -2.9377   -1.6599    0.0000 C   0  0  0  0  0  0  0  0  0  0  0  0
   -4.3799   -2.0722    0.0000 C   0  0  0  0  0  0  0  0  0  0  0  0
   -5.4581   -1.0294    0.0000 C   0  0  0  0  0  0  0  0  0  0  0  0
   -6.9003   -1.4417    0.0000 C   0  0  0  0  0  0  0  0  0  0  0  0
   -7.2643   -2.8968    0.0000 C   0  0  0  0  0  0  0  0  0  0  0  0
   -6.1862   -3.9397    0.0000 C   0  0  0  0  0  0  0  0  0  0  0  0
   -4.7440   -3.5274    0.0000 C   0  0  0  0  0  0  0  0  0  0  0  0
   -2.4235   -0.2508    0.0000 C   0  0  0  0  0  0  0  0  0  0  0  0
  1  2  1  0
  2  3  2  0
  3  4  1  0
  4  5  1  0
  5  6  2  0
  6  7  1  0
  7  8  2  0
  8  9  1  0
  9 10  2  0
  4 11  1  0
 11 12  1  0
 12 13  2  0
 13 14  1  0
 14 15  2  0
 15 16  1  0
 16 17  2  0
 11 18  2  0
  1 19  1  0
 19 20  2  0
 20 21  1  0
 21 22  1  0
 22 23  2  0
 23 24  1  0
 24 25  2  0
 25 26  1  0
 26 27  2  0
 21 28  1  0
 28 29  2  0
  1 30  1  0
 30 31  2  0
 31 32  1  0
 32 33  1  0
 33 34  2  0
 34 35  1  0
 35 36  2  0
 36 37  1  0
 37 38  2  0
 32 39  1  0
 39 40  1  0
 40 41  2  0
 41 42  1  0
 42 43  2  0
 43 44  1  0
 44 45  2  0
 39 46  2  0
 18  2  1  0
 29 19  1  0
 46 30  1  0
 10  5  1  0
 17 12  1  0
 27 22  1  0
 38 33  1  0
 45 40  1  0
M  END
$$$$
Molecule_21
     RDKit          2D

 32 36  0  0  0  0  0  0  0  0999 V2000
    0.1154    0.9166    0.0000 P   0  0  0  0  0  0  0  0  0  0  0  0
    1.1115   -0.2049    0.0000 C   0  0  0  0  0  0  0  0  0  0  0  0
    2.6043   -0.0582    0.0000 N   0  0  0  0  0  0  0  0  0  0  0  0
    3.2051   -1.4327    0.0000 N   0  0  0  0  0  0  0  0  0  0  0  0
    4.6702   -1.7544    0.0000 C   0  0  0  0  0  0  0  0  0  0  0  0
    5.1241   -3.1841    0.0000 C   0  0  0  0  0  0  0  0  0  0  0  0
    6.5891   -3.5059    0.0000 C   0  0  0  0  0  0  0  0  0  0  0  0
    7.6004   -2.3980    0.0000 C   0  0  0  0  0  0  0  0  0  0  0  0
    7.1465   -0.9683    0.0000 C   0  0  0  0  0  0  0  0  0  0  0  0
    5.6814   -0.6466    0.0000 C   0  0  0  0  0  0  0  0  0  0  0  0
    2.0836   -2.4288    0.0000 C   0  0  0  0  0  0  0  0  0  0  0  0
    0.7897   -1.6700    0.0000 C   0  0  0  0  0  0  0  0  0  0  0  0
    0.5885    2.3400    0.0000 C   0  0  0  0  0  0  0  0  0  0  0  0
    2.0578    2.6419    0.0000 C   0  0  0  0  0  0  0  0  0  0  0  0
    2.5310    4.0653    0.0000 C   0  0  0  0  0  0  0  0  0  0  0  0
    1.5349    5.1868    0.0000 C   0  0  0  0  0  0  0  0  0  0  0  0
    0.0656    4.8849    0.0000 C   0  0  0  0  0  0  0  0  0  0  0  0
   -0.4076    3.4615    0.0000 C   0  0  0  0  0  0  0  0  0  0  0  0
   -1.8769    3.1595    0.0000 N   0  0  0  0  0  0  0  0  0  0  0  0
   -2.4041    2.3285    0.0000 C   0  0  0  0  0  0  0  0  0  0  0  0
   -2.8730    4.2810    0.0000 C   0  0  0  0  0  0  0  0  0  0  0  0
   -1.3539    0.6146    0.0000 C   0  0  0  0  0  0  0  0  0  0  0  0
   -1.9733   -0.7515    0.0000 N   0  0  0  0  0  0  0  0  0  0  0  0
   -3.4640   -0.5847    0.0000 N   0  0  0  0  0  0  0  0  0  0  0  0
   -4.4752   -1.6925    0.0000 C   0  0  0  0  0  0  0  0  0  0  0  0
   -5.9403   -1.3708    0.0000 C   0  0  0  0  0  0  0  0  0  0  0  0
   -6.9515   -2.4787    0.0000 C   0  0  0  0  0  0  0  0  0  0  0  0
   -6.4976   -3.9083    0.0000 C   0  0  0  0  0  0  0  0  0  0  0  0
   -5.0326   -4.2301    0.0000 C   0  0  0  0  0  0  0  0  0  0  0  0
   -4.0213   -3.1222    0.0000 C   0  0  0  0  0  0  0  0  0  0  0  0
   -3.7659    0.8846    0.0000 C   0  0  0  0  0  0  0  0  0  0  0  0
   -2.4618    1.6258    0.0000 C   0  0  0  0  0  0  0  0  0  0  0  0
  1  2  1  0
  2  3  2  0
  3  4  1  0
  4  5  1  0
  5  6  2  0
  6  7  1  0
  7  8  2  0
  8  9  1  0
  9 10  2  0
  4 11  1  0
 11 12  2  0
  1 13  1  0
 13 14  2  0
 14 15  1  0
 15 16  2  0
 16 17  1  0
 17 18  2  0
 18 19  1  0
 19 20  1  0
 19 21  1  0
  1 22  1  0
 22 23  2  0
 23 24  1  0
 24 25  1  0
 25 26  2  0
 26 27  1  0
 27 28  2  0
 28 29  1  0
 29 30  2  0
 24 31  1  0
 31 32  2  0
 12  2  1  0
 18 13  1  0
 32 22  1  0
 10  5  1  0
 30 25  1  0
M  END
$$$$
Molecule_22
     RDKit          2D

 32 35  0  0  0  0  0  0  0  0999 V2000
   -3.6510   -4.3517    0.0000 C   0  0  0  0  0  0  0  0  0  0  0  0
   -2.3255   -3.6495    0.0000 O   0  0  0  0  0  0  0  0  0  0  0  0
   -2.2708   -2.1505    0.0000 C   0  0  0  0  0  0  0  0  0  0  0  0
   -3.5416   -1.3537    0.0000 C   0  0  0  0  0  0  0  0  0  0  0  0
   -3.4869    0.1453    0.0000 C   0  0  0  0  0  0  0  0  0  0  0  0
   -4.7577    0.9422    0.0000 O   0  0  0  0  0  0  0  0  0  0  0  0
   -6.0833    0.2401    0.0000 C   0  0  0  0  0  0  0  0  0  0  0  0
   -2.1614    0.8475    0.0000 C   0  0  0  0  0  0  0  0  0  0  0  0
   -2.1067    2.3465    0.0000 C   0  0  0  0  0  0  0  0  0  0  0  0
   -0.6077    2.2918    0.0000 C   0  0  0  0  0  0  0  0  0  0  0  0
   -3.6057    2.4012    0.0000 C   0  0  0  0  0  0  0  0  0  0  0  0
   -2.0520    3.8455    0.0000 C   0  0  0  0  0  0  0  0  0  0  0  0
   -0.8906    0.0506    0.0000 C   0  0  0  0  0  0  0  0  0  0  0  0
   -0.9453   -1.4484    0.0000 C   0  0  0  0  0  0  0  0  0  0  0  0
    0.3256   -2.2453    0.0000 N   0  0  0  0  0  0  0  0  0  0  0  0
    1.7172   -1.6856    0.0000 C   0  0  0  0  0  0  0  0  0  0  0  0
    2.0824   -0.2307    0.0000 P   0  0  0  0  0  0  0  0  0  0  0  0
    3.5249    0.1805    0.0000 C   0  0  0  0  0  0  0  0  0  0  0  0
    4.6023   -0.8632    0.0000 C   0  0  0  0  0  0  0  0  0  0  0  0
    6.0448   -0.4520    0.0000 C   0  0  0  0  0  0  0  0  0  0  0  0
    6.4100    1.0028    0.0000 C   0  0  0  0  0  0  0  0  0  0  0  0
    5.3326    2.0465    0.0000 C   0  0  0  0  0  0  0  0  0  0  0  0
    3.8901    1.6353    0.0000 C   0  0  0  0  0  0  0  0  0  0  0  0
    1.0050    0.8130    0.0000 C   0  0  0  0  0  0  0  0  0  0  0  0
    1.3702    2.2678    0.0000 C   0  0  0  0  0  0  0  0  0  0  0  0
    0.2928    3.3115    0.0000 C   0  0  0  0  0  0  0  0  0  0  0  0
   -1.1497    2.9003    0.0000 C   0  0  0  0  0  0  0  0  0  0  0  0
   -1.5149    1.4455    0.0000 C   0  0  0  0  0  0  0  0  0  0  0  0
   -0.4375    0.4018    0.0000 C   0  0  0  0  0  0  0  0  0  0  0  0
    2.6796   -2.8362    0.0000 C   0  0  0  0  0  0  0  0  0  0  0  0
    1.8827   -4.1070    0.0000 C   0  0  0  0  0  0  0  0  0  0  0  0
    0.4278   -3.7418    0.0000 N   0  0  0  0  0  0  0  0  0  0  0  0
  1  2  1  0
  2  3  1  0
  3  4  2  0
  4  5  1  0
  5  6  1  0
  6  7  1  0
  5  8  2  0
  8  9  1  0
  9 10  1  0
  9 11  1  0
  9 12  1  0
  8 13  1  0
 13 14  2  0
 14 15  1  0
 15 16  1  0
 16 17  1  0
 17 18  1  0
 18 19  1  0
 19 20  1  0
 20 21  1  0
 21 22  1  0
 22 23  1  0
 17 24  1  0
 24 25  1  0
 25 26  1  0
 26 27  1  0
 27 28  1  0
 28 29  1  0
 16 30  2  0
 30 31  1  0
 31 32  2  0
 14  3  1  0
 32 15  1  0
 23 18  1  0
 29 24  1  0
M  END
$$$$
Molecule_23
     RDKit          2D

 33 36  0  0  0  0  0  0  0  0999 V2000
    0.6618    0.1589    0.0000 P   0  0  0  0  0  0  0  0  0  0  0  0
    2.0841   -0.3178    0.0000 C   0  0  0  0  0  0  0  0  0  0  0  0
    2.3824   -1.7879    0.0000 C   0  0  0  0  0  0  0  0  0  0  0  0
    1.2584   -2.7812    0.0000 O   0  0  0  0  0  0  0  0  0  0  0  0
   -0.2369   -2.6628    0.0000 C   0  0  0  0  0  0  0  0  0  0  0  0
    3.8046   -2.2645    0.0000 C   0  0  0  0  0  0  0  0  0  0  0  0
    4.9286   -1.2712    0.0000 C   0  0  0  0  0  0  0  0  0  0  0  0
    4.6303    0.1988    0.0000 C   0  0  0  0  0  0  0  0  0  0  0  0
    3.2080    0.6755    0.0000 C   0  0  0  0  0  0  0  0  0  0  0  0
    2.9097    2.1456    0.0000 O   0  0  0  0  0  0  0  0  0  0  0  0
    4.0337    3.1389    0.0000 C   0  0  0  0  0  0  0  0  0  0  0  0
    0.3635    1.6289    0.0000 C   0  0  0  0  0  0  0  0  0  0  0  0
    1.4875    2.6223    0.0000 C   0  0  0  0  0  0  0  0  0  0  0  0
    1.1892    4.0923    0.0000 C   0  0  0  0  0  0  0  0  0  0  0  0
   -0.2331    4.5690    0.0000 C   0  0  0  0  0  0  0  0  0  0  0  0
   -1.3570    3.5756    0.0000 C   0  0  0  0  0  0  0  0  0  0  0  0
   -1.0587    2.1056    0.0000 C   0  0  0  0  0  0  0  0  0  0  0  0
   -2.1827    1.1122    0.0000 N   0  0  0  0  0  0  0  0  0  0  0  0
   -3.6049    1.5889    0.0000 C   0  0  0  0  0  0  0  0  0  0  0  0
   -4.7288    0.5956    0.0000 C   0  0  0  0  0  0  0  0  0  0  0  0
   -4.4305   -0.8745    0.0000 C   0  0  0  0  0  0  0  0  0  0  0  0
   -3.0083   -1.3512    0.0000 C   0  0  0  0  0  0  0  0  0  0  0  0
   -1.8844   -0.3578    0.0000 C   0  0  0  0  0  0  0  0  0  0  0  0
   -0.4621   -0.8345    0.0000 C   0  0  0  0  0  0  0  0  0  0  0  0
   -1.8844   -0.3578    0.0000 C   0  0  0  0  0  0  0  0  0  0  0  0
   -2.1827    1.1122    0.0000 O   0  0  0  0  0  0  0  0  0  0  0  0
   -1.3325    2.3480    0.0000 C   0  0  0  0  0  0  0  0  0  0  0  0
   -3.0083   -1.3512    0.0000 C   0  0  0  0  0  0  0  0  0  0  0  0
   -2.7100   -2.8212    0.0000 C   0  0  0  0  0  0  0  0  0  0  0  0
   -1.2878   -3.2979    0.0000 C   0  0  0  0  0  0  0  0  0  0  0  0
   -0.1638   -2.3045    0.0000 C   0  0  0  0  0  0  0  0  0  0  0  0
    1.2584   -2.7812    0.0000 O   0  0  0  0  0  0  0  0  0  0  0  0
    1.5567   -4.2513    0.0000 C   0  0  0  0  0  0  0  0  0  0  0  0
  1  2  1  0
  2  3  2  0
  3  4  1  0
  4  5  1  0
  3  6  1  0
  6  7  2  0
  7  8  1  0
  8  9  2  0
  9 10  1  0
 10 11  1  0
  1 12  1  0
 12 13  2  0
 13 14  1  0
 14 15  2  0
 15 16  1  0
 16 17  2  0
 17 18  1  0
 18 19  1  0
 19 20  1  0
 20 21  1  0
 21 22  1  0
 22 23  1  0
  1 24  1  0
 24 25  2  0
 25 26  1  0
 26 27  1  0
 25 28  1  0
 28 29  2  0
 29 30  1  0
 30 31  2  0
 31 32  1  0
 32 33  1  0
  9  2  1  0
 17 12  1  0
 23 18  1  0
 31 24  1  0
M  END
$$$$
Molecule_24
     RDKit          2D

 29 33  0  0  0  0  0  0  0  0999 V2000
    0.6270   -0.0000    0.0000 P   0  0  0  0  0  0  0  0  0  0  0  0
    1.3770   -1.2990    0.0000 C   0  0  0  0  0  0  0  0  0  0  0  0
    0.6270   -2.5981    0.0000 C   0  0  0  0  0  0  0  0  0  0  0  0
    1.3770   -3.8971    0.0000 C   0  0  0  0  0  0  0  0  0  0  0  0
    2.8770   -3.8971    0.0000 C   0  0  0  0  0  0  0  0  0  0  0  0
    3.6270   -2.5981    0.0000 C   0  0  0  0  0  0  0  0  0  0  0  0
    2.8770   -1.2990    0.0000 C   0  0  0  0  0  0  0  0  0  0  0  0
    3.5351   -0.4257    0.0000 C   0  0  0  0  0  0  0  0  0  0  0  0
   -0.8730   -0.0000    0.0000 C   0  0  0  0  0  0  0  0  0  0  0  0
   -1.6230    1.2990    0.0000 C   0  0  0  0  0  0  0  0  0  0  0  0
   -0.8730    2.5981    0.0000 C   0  0  0  0  0  0  0  0  0  0  0  0
   -1.6230    3.8971    0.0000 C   0  0  0  0  0  0  0  0  0  0  0  0
   -3.1230    3.8971    0.0000 C   0  0  0  0  0  0  0  0  0  0  0  0
   -3.8730    2.5981    0.0000 C   0  0  0  0  0  0  0  0  0  0  0  0
   -3.1230    1.2990    0.0000 C   0  0  0  0  0  0  0  0  0  0  0  0
   -3.8730    0.0000    0.0000 C   0  0  0  0  0  0  0  0  0  0  0  0
   -3.1230   -1.2990    0.0000 C   0  0  0  0  0  0  0  0  0  0  0  0
   -3.8730   -2.5981    0.0000 C   0  0  0  0  0  0  0  0  0  0  0  0
   -3.1230   -3.8971    0.0000 C   0  0  0  0  0  0  0  0  0  0  0  0
   -1.6230   -3.8971    0.0000 C   0  0  0  0  0  0  0  0  0  0  0  0
   -0.8730   -2.5981    0.0000 C   0  0  0  0  0  0  0  0  0  0  0  0
   -1.6230   -1.2990    0.0000 C   0  0  0  0  0  0  0  0  0  0  0  0
    1.3770    1.2990    0.0000 C   0  0  0  0  0  0  0  0  0  0  0  0
    0.6270    2.5981    0.0000 C   0  0  0  0  0  0  0  0  0  0  0  0
    1.3770    3.8971    0.0000 C   0  0  0  0  0  0  0  0  0  0  0  0
    2.8770    3.8971    0.0000 C   0  0  0  0  0  0  0  0  0  0  0  0
    3.6270    2.5981    0.0000 C   0  0  0  0  0  0  0  0  0  0  0  0
    2.8770    1.2990    0.0000 C   0  0  0  0  0  0  0  0  0  0  0  0
    3.5351    0.4257    0.0000 C   0  0  0  0  0  0  0  0  0  0  0  0
  1  2  1  0
  2  3  2  0
  3  4  1  0
  4  5  2  0
  5  6  1  0
  6  7  2  0
  7  8  1  0
  1  9  1  0
  9 10  1  0
 10 11  2  0
 11 12  1  0
 12 13  2  0
 13 14  1  0
 14 15  2  0
 15 16  1  0
 16 17  2  0
 17 18  1  0
 18 19  2  0
 19 20  1  0
 20 21  2  0
 21 22  1  0
  1 23  1  0
 23 24  2  0
 24 25  1  0
 25 26  2  0
 26 27  1  0
 27 28  2  0
 28 29  1  0
  7  2  1  0
 22  9  2  0
 28 23  1  0
 15 10  1  0
 22 17  1  0
M  END
$$$$
Molecule_25
     RDKit          2D

 41 47  0  0  0  0  0  0  0  0999 V2000
   -0.0000   -1.7245    0.0000 P   0  0  0  0  0  0  0  0  0  0  0  0
    1.2990   -0.9745    0.0000 C   0  0  0  0  0  0  0  0  0  0  0  0
    1.4558    0.5173    0.0000 N   0  0  0  0  0  0  0  0  0  0  0  0
    2.9231    0.8292    0.0000 N   0  0  0  0  0  0  0  0  0  0  0  0
    3.5332    2.1995    0.0000 C   0  0  0  0  0  0  0  0  0  0  0  0
    5.0249    2.3563    0.0000 C   0  0  0  0  0  0  0  0  0  0  0  0
    5.6350    3.7266    0.0000 C   0  0  0  0  0  0  0  0  0  0  0  0
    4.7534    4.9401    0.0000 C   0  0  0  0  0  0  0  0  0  0  0  0
    3.2616    4.7833    0.0000 C   0  0  0  0  0  0  0  0  0  0  0  0
    2.6515    3.4130    0.0000 C   0  0  0  0  0  0  0  0  0  0  0  0
    3.6731   -0.4699    0.0000 C   0  0  0  0  0  0  0  0  0  0  0  0
    5.1648   -0.6267    0.0000 C   0  0  0  0  0  0  0  0  0  0  0  0
    5.7749   -1.9970    0.0000 C   0  0  0  0  0  0  0  0  0  0  0  0
    7.2667   -2.1538    0.0000 C   0  0  0  0  0  0  0  0  0  0  0  0
    8.1484   -0.9402    0.0000 C   0  0  0  0  0  0  0  0  0  0  0  0
    7.5383    0.4301    0.0000 C   0  0  0  0  0  0  0  0  0  0  0  0
    6.0465    0.5869    0.0000 C   0  0  0  0  0  0  0  0  0  0  0  0
    2.6694   -1.5846    0.0000 C   0  0  0  0  0  0  0  0  0  0  0  0
    0.0000   -3.2245    0.0000 N   0  0  0  0  0  0  0  0  0  0  0  0
   -1.2990   -3.9745    0.0000 C   0  0  0  0  0  0  0  0  0  0  0  0
   -1.2990   -5.4745    0.0000 C   0  0  0  0  0  0  0  0  0  0  0  0
    0.0000   -6.2245    0.0000 C   0  0  0  0  0  0  0  0  0  0  0  0
    1.2990   -5.4745    0.0000 C   0  0  0  0  0  0  0  0  0  0  0  0
    1.2990   -3.9745    0.0000 C   0  0  0  0  0  0  0  0  0  0  0  0
   -1.2990   -0.9745    0.0000 C   0  0  0  0  0  0  0  0  0  0  0  0
   -2.6694   -1.5846    0.0000 N   0  0  0  0  0  0  0  0  0  0  0  0
   -3.6731   -0.4699    0.0000 N   0  0  0  0  0  0  0  0  0  0  0  0
   -5.1648   -0.6267    0.0000 C   0  0  0  0  0  0  0  0  0  0  0  0
   -6.0465    0.5869    0.0000 C   0  0  0  0  0  0  0  0  0  0  0  0
   -7.5383    0.4301    0.0000 C   0  0  0  0  0  0  0  0  0  0  0  0
   -8.1484   -0.9402    0.0000 C   0  0  0  0  0  0  0  0  0  0  0  0
   -7.2667   -2.1538    0.0000 C   0  0  0  0  0  0  0  0  0  0  0  0
   -5.7749   -1.9970    0.0000 C   0  0  0  0  0  0  0  0  0  0  0  0
   -2.9231    0.8292    0.0000 C   0  0  0  0  0  0  0  0  0  0  0  0
   -3.5332    2.1995    0.0000 C   0  0  0  0  0  0  0  0  0  0  0  0
   -2.6515    3.4130    0.0000 C   0  0  0  0  0  0  0  0  0  0  0  0
   -3.2616    4.7833    0.0000 C   0  0  0  0  0  0  0  0  0  0  0  0
   -4.7534    4.9401    0.0000 C   0  0  0  0  0  0  0  0  0  0  0  0
   -5.6350    3.7266    0.0000 C   0  0  0  0  0  0  0  0  0  0  0  0
   -5.0249    2.3563    0.0000 C   0  0  0  0  0  0  0  0  0  0  0  0
   -1.4558    0.5173    0.0000 C   0  0  0  0  0  0  0  0  0  0  0  0
  1  2  1  0
  2  3  2  0
  3  4  1  0
  4  5  1  0
  5  6  2  0
  6  7  1  0
  7  8  2  0
  8  9  1  0
  9 10  2  0
  4 11  1  0
 11 12  1  0
 12 13  2  0
 13 14  1  0
 14 15  2  0
 15 16  1  0
 16 17  2  0
 11 18  2  0
  1 19  1  0
 19 20  1  0
 20 21  1  0
 21 22  1  0
 22 23  1  0
 23 24  1  0
  1 25  1  0
 25 26  2  0
 26 27  1  0
 27 28  1  0
 28 29  2  0
 29 30  1  0
 30 31  2  0
 31 32  1  0
 32 33  2  0
 27 34  1  0
 34 35  1  0
 35 36  2  0
 36 37  1  0
 37 38  2  0
 38 39  1  0
 39 40  2  0
 34 41  2  0
 18  2  1  0
 24 19  1  0
 41 25  1  0
 10  5  1  0
 17 12  1  0
 33 28  1  0
 40 35  1  0
M  END
$$$$
Molecule_26
     RDKit          2D

 28 29  0  0  0  0  0  0  0  0999 V2000
   -2.1160    2.5151    0.0000 C   0  0  0  0  0  0  0  0  0  0  0  0
   -1.2255    1.3081    0.0000 C   0  0  0  0  0  0  0  0  0  0  0  0
   -2.4325    0.4175    0.0000 P   0  0  0  0  0  0  0  0  0  0  0  0
   -2.2648   -1.0731    0.0000 C   0  0  0  0  0  0  0  0  0  0  0  0
   -3.3721   -2.0849    0.0000 C   0  0  0  0  0  0  0  0  0  0  0  0
   -2.7520   -3.4507    0.0000 C   0  0  0  0  0  0  0  0  0  0  0  0
   -1.2614   -3.2830    0.0000 N   0  0  0  0  0  0  0  0  0  0  0  0
   -0.9603   -1.8135    0.0000 N   0  0  0  0  0  0  0  0  0  0  0  0
    0.4055   -1.1934    0.0000 C   0  0  0  0  0  0  0  0  0  0  0  0
    0.5514    0.2995    0.0000 C   0  0  0  0  0  0  0  0  0  0  0  0
    1.9172    0.9196    0.0000 C   0  0  0  0  0  0  0  0  0  0  0  0
    2.0630    2.4125    0.0000 C   0  0  0  0  0  0  0  0  0  0  0  0
    0.5990    2.7392    0.0000 C   0  0  0  0  0  0  0  0  0  0  0  0
    3.5559    2.2666    0.0000 C   0  0  0  0  0  0  0  0  0  0  0  0
    2.2089    3.9054    0.0000 C   0  0  0  0  0  0  0  0  0  0  0  0
    3.1371    0.0468    0.0000 C   0  0  0  0  0  0  0  0  0  0  0  0
    4.5029    0.6670    0.0000 O   0  0  0  0  0  0  0  0  0  0  0  0
    5.7229   -0.2058    0.0000 C   0  0  0  0  0  0  0  0  0  0  0  0
    2.9913   -1.4461    0.0000 C   0  0  0  0  0  0  0  0  0  0  0  0
    1.6255   -2.0662    0.0000 C   0  0  0  0  0  0  0  0  0  0  0  0
    1.4796   -3.5591    0.0000 O   0  0  0  0  0  0  0  0  0  0  0  0
    2.6995   -4.4318    0.0000 C   0  0  0  0  0  0  0  0  0  0  0  0
   -3.8073    1.0176    0.0000 C   0  0  0  0  0  0  0  0  0  0  0  0
   -3.2072    2.3923    0.0000 C   0  0  0  0  0  0  0  0  0  0  0  0
   -4.4073   -0.3572    0.0000 C   0  0  0  0  0  0  0  0  0  0  0  0
   -5.1820    1.6176    0.0000 C   0  0  0  0  0  0  0  0  0  0  0  0
   -0.3350    0.1010    0.0000 C   0  0  0  0  0  0  0  0  0  0  0  0
   -0.1360    2.3391    0.0000 C   0  0  0  0  0  0  0  0  0  0  0  0
  1  2  1  0
  2  3  1  0
  3  4  1  0
  4  5  2  0
  5  6  1  0
  6  7  2  0
  7  8  1  0
  8  9  1  0
  9 10  2  0
 10 11  1  0
 11 12  1  0
 12 13  1  0
 12 14  1  0
 12 15  1  0
 11 16  2  0
 16 17  1  0
 17 18  1  0
 16 19  1  0
 19 20  2  0
 20 21  1  0
 21 22  1  0
  3 23  1  0
 23 24  1  0
 23 25  1  0
 23 26  1  0
  2 27  1  0
  2 28  1  0
  8  4  1  0
 20  9  1  0
M  END
$$$$
Molecule_27
     RDKit          2D

 31 35  0  0  0  0  0  0  0  0999 V2000
   -0.0000   -0.7681    0.0000 P   0  0  0  0  0  0  0  0  0  0  0  0
    0.4910    0.6492    0.0000 C   0  0  0  0  0  0  0  0  0  0  0  0
    1.9640    0.9327    0.0000 C   0  0  0  0  0  0  0  0  0  0  0  0
    2.4550    2.3501    0.0000 C   0  0  0  0  0  0  0  0  0  0  0  0
    1.4730    3.4840    0.0000 C   0  0  0  0  0  0  0  0  0  0  0  0
    0.0000    3.2005    0.0000 C   0  0  0  0  0  0  0  0  0  0  0  0
   -0.4910    1.7831    0.0000 C   0  0  0  0  0  0  0  0  0  0  0  0
   -1.9640    1.4997    0.0000 N   0  0  0  0  0  0  0  0  0  0  0  0
   -2.4550    0.0823    0.0000 C   0  0  0  0  0  0  0  0  0  0  0  0
   -3.9279   -0.2012    0.0000 C   0  0  0  0  0  0  0  0  0  0  0  0
   -4.9099    0.9327    0.0000 C   0  0  0  0  0  0  0  0  0  0  0  0
   -4.4189    2.3501    0.0000 C   0  0  0  0  0  0  0  0  0  0  0  0
   -2.9459    2.6336    0.0000 C   0  0  0  0  0  0  0  0  0  0  0  0
   -1.4730   -1.0516    0.0000 N   0  0  0  0  0  0  0  0  0  0  0  0
   -2.4550    0.0823    0.0000 C   0  0  0  0  0  0  0  0  0  0  0  0
   -3.9279   -0.2012    0.0000 C   0  0  0  0  0  0  0  0  0  0  0  0
   -4.4189   -1.6185    0.0000 C   0  0  0  0  0  0  0  0  0  0  0  0
   -3.4369   -2.7524    0.0000 C   0  0  0  0  0  0  0  0  0  0  0  0
   -1.9640   -2.4690    0.0000 C   0  0  0  0  0  0  0  0  0  0  0  0
    0.9820   -1.9020    0.0000 C   0  0  0  0  0  0  0  0  0  0  0  0
    0.4910   -3.3194    0.0000 C   0  0  0  0  0  0  0  0  0  0  0  0
    1.4730   -4.4533    0.0000 C   0  0  0  0  0  0  0  0  0  0  0  0
    2.9459   -4.1698    0.0000 C   0  0  0  0  0  0  0  0  0  0  0  0
    3.4369   -2.7524    0.0000 C   0  0  0  0  0  0  0  0  0  0  0  0
    2.4550   -1.6185    0.0000 C   0  0  0  0  0  0  0  0  0  0  0  0
    2.9459   -0.2012    0.0000 N   0  0  0  0  0  0  0  0  0  0  0  0
    4.4189    0.0823    0.0000 C   0  0  0  0  0  0  0  0  0  0  0  0
    4.9099    1.4997    0.0000 C   0  0  0  0  0  0  0  0  0  0  0  0
    3.9279    2.6336    0.0000 C   0  0  0  0  0  0  0  0  0  0  0  0
    2.4550    2.3501    0.0000 C   0  0  0  0  0  0  0  0  0  0  0  0
    1.9640    0.9327    0.0000 C   0  0  0  0  0  0  0  0  0  0  0  0
  1  2  1  0
  2  3  2  0
  3  4  1  0
  4  5  2  0
  5  6  1  0
  6  7  2  0
  7  8  1  0
  8  9  1  0
  9 10  1  0
 10 11  1  0
 11 12  1  0
 12 13  1  0
  1 14  1  0
 14 15  1  0
 15 16  1  0
 16 17  1  0
 17 18  1  0
 18 19  1  0
  1 20  1  0
 20 21  2  0
 21 22  1  0
 22 23  2  0
 23 24  1  0
 24 25  2  0
 25 26  1  0
 26 27  1  0
 27 28  1  0
 28 29  1  0
 29 30  1  0
 30 31  1  0
  7  2  1  0
 13  8  1  0
 19 14  1  0
 25 20  1  0
 31 26  1  0
M  END
$$$$
Molecule_28
     RDKit          2D

 33 35  0  0  0  0  0  0  0  0999 V2000
   -0.0000    0.0712    0.0000 P   0  0  0  0  0  0  0  0  0  0  0  0
    1.2990    0.8212    0.0000 C   0  0  0  0  0  0  0  0  0  0  0  0
    2.5981    0.0712    0.0000 C   0  0  0  0  0  0  0  0  0  0  0  0
    2.5981   -1.4288    0.0000 O   0  0  0  0  0  0  0  0  0  0  0  0
    4.0400   -1.8422    0.0000 C   0  0  0  0  0  0  0  0  0  0  0  0
    3.8971    0.8212    0.0000 C   0  0  0  0  0  0  0  0  0  0  0  0
    3.8971    2.3212    0.0000 C   0  0  0  0  0  0  0  0  0  0  0  0
    2.5981    3.0712    0.0000 C   0  0  0  0  0  0  0  0  0  0  0  0
    1.2990    2.3212    0.0000 C   0  0  0  0  0  0  0  0  0  0  0  0
    0.0000    3.0712    0.0000 O   0  0  0  0  0  0  0  0  0  0  0  0
    0.1828    4.5600    0.0000 C   0  0  0  0  0  0  0  0  0  0  0  0
   -0.0000   -1.4288    0.0000 C   0  0  0  0  0  0  0  0  0  0  0  0
   -1.2990   -2.1788    0.0000 C   0  0  0  0  0  0  0  0  0  0  0  0
   -2.5981   -1.4288    0.0000 O   0  0  0  0  0  0  0  0  0  0  0  0
   -3.8971   -2.1788    0.0000 C   0  0  0  0  0  0  0  0  0  0  0  0
   -5.1962   -1.4288    0.0000 C   0  0  0  0  0  0  0  0  0  0  0  0
   -1.2990   -3.6788    0.0000 C   0  0  0  0  0  0  0  0  0  0  0  0
   -0.0000   -4.4288    0.0000 C   0  0  0  0  0  0  0  0  0  0  0  0
    1.2990   -3.6788    0.0000 C   0  0  0  0  0  0  0  0  0  0  0  0
    1.2990   -2.1788    0.0000 C   0  0  0  0  0  0  0  0  0  0  0  0
    2.5981   -1.4288    0.0000 O   0  0  0  0  0  0  0  0  0  0  0  0
    3.8971   -2.1788    0.0000 C   0  0  0  0  0  0  0  0  0  0  0  0
    5.1962   -1.4288    0.0000 C   0  0  0  0  0  0  0  0  0  0  0  0
   -1.2990    0.8212    0.0000 C   0  0  0  0  0  0  0  0  0  0  0  0
   -1.2990    2.3212    0.0000 C   0  0  0  0  0  0  0  0  0  0  0  0
   -0.0000    3.0712    0.0000 O   0  0  0  0  0  0  0  0  0  0  0  0
   -0.1828    4.5600    0.0000 C   0  0  0  0  0  0  0  0  0  0  0  0
   -2.5981    3.0712    0.0000 C   0  0  0  0  0  0  0  0  0  0  0  0
   -3.8971    2.3212    0.0000 C   0  0  0  0  0  0  0  0  0  0  0  0
   -3.8971    0.8212    0.0000 C   0  0  0  0  0  0  0  0  0  0  0  0
   -2.5981    0.0712    0.0000 C   0  0  0  0  0  0  0  0  0  0  0  0
   -2.5981   -1.4288    0.0000 O   0  0  0  0  0  0  0  0  0  0  0  0
   -4.0400   -1.8422    0.0000 C   0  0  0  0  0  0  0  0  0  0  0  0
  1  2  1  0
  2  3  2  0
  3  4  1  0
  4  5  1  0
  3  6  1  0
  6  7  2  0
  7  8  1  0
  8  9  2  0
  9 10  1  0
 10 11  1  0
  1 12  1  0
 12 13  2  0
 13 14  1  0
 14 15  1  0
 15 16  1  0
 13 17  1  0
 17 18  2  0
 18 19  1  0
 19 20  2  0
 20 21  1  0
 21 22  1  0
 22 23  1  0
  1 24  1  0
 24 25  2  0
 25 26  1  0
 26 27  1  0
 25 28  1  0
 28 29  2  0
 29 30  1  0
 30 31  2  0
 31 32  1  0
 32 33  1  0
  9  2  1  0
 20 12  1  0
 31 24  1  0
M  END
$$$$
Molecule_29
     RDKit          2D

 37 39  0  0  0  0  0  0  0  0999 V2000
   -0.2416    0.3895    0.0000 P   0  0  0  0  0  0  0  0  0  0  0  0
    0.9907   -0.4658    0.0000 C   0  0  0  0  0  0  0  0  0  0  0  0
    0.8661   -1.9606    0.0000 C   0  0  0  0  0  0  0  0  0  0  0  0
    2.0983   -2.8159    0.0000 C   0  0  0  0  0  0  0  0  0  0  0  0
    3.4552   -2.1764    0.0000 C   0  0  0  0  0  0  0  0  0  0  0  0
    4.6874   -3.0318    0.0000 N   0  0  0  0  0  0  0  0  0  0  0  0
    4.5628   -4.5266    0.0000 C   0  0  0  0  0  0  0  0  0  0  0  0
    6.0443   -2.3923    0.0000 C   0  0  0  0  0  0  0  0  0  0  0  0
    3.5798   -0.6816    0.0000 C   0  0  0  0  0  0  0  0  0  0  0  0
    2.3475    0.1737    0.0000 C   0  0  0  0  0  0  0  0  0  0  0  0
    2.4721    1.6685    0.0000 N   0  0  0  0  0  0  0  0  0  0  0  0
    3.9434    1.9607    0.0000 C   0  0  0  0  0  0  0  0  0  0  0  0
    1.9467    2.2680    0.0000 C   0  0  0  0  0  0  0  0  0  0  0  0
   -0.1170    1.8843    0.0000 C   0  0  0  0  0  0  0  0  0  0  0  0
    1.2399    2.5238    0.0000 C   0  0  0  0  0  0  0  0  0  0  0  0
    2.4721    1.6685    0.0000 O   0  0  0  0  0  0  0  0  0  0  0  0
    3.8290    2.3080    0.0000 C   0  0  0  0  0  0  0  0  0  0  0  0
    5.0612    1.4527    0.0000 C   0  0  0  0  0  0  0  0  0  0  0  0
    1.3645    4.0186    0.0000 C   0  0  0  0  0  0  0  0  0  0  0  0
    0.1322    4.8740    0.0000 C   0  0  0  0  0  0  0  0  0  0  0  0
   -1.2246    4.2345    0.0000 C   0  0  0  0  0  0  0  0  0  0  0  0
   -1.3492    2.7396    0.0000 C   0  0  0  0  0  0  0  0  0  0  0  0
   -2.7061    2.1001    0.0000 O   0  0  0  0  0  0  0  0  0  0  0  0
   -3.9383    2.9555    0.0000 C   0  0  0  0  0  0  0  0  0  0  0  0
   -5.2952    2.3160    0.0000 C   0  0  0  0  0  0  0  0  0  0  0  0
   -1.5984   -0.2500    0.0000 C   0  0  0  0  0  0  0  0  0  0  0  0
   -2.8307    0.6053    0.0000 C   0  0  0  0  0  0  0  0  0  0  0  0
   -4.1875   -0.0342    0.0000 C   0  0  0  0  0  0  0  0  0  0  0  0
   -4.3121   -1.5290    0.0000 C   0  0  0  0  0  0  0  0  0  0  0  0
   -5.6690   -2.1685    0.0000 N   0  0  0  0  0  0  0  0  0  0  0  0
   -6.9012   -1.3132    0.0000 C   0  0  0  0  0  0  0  0  0  0  0  0
   -5.7936   -3.6633    0.0000 C   0  0  0  0  0  0  0  0  0  0  0  0
   -3.0799   -2.3843    0.0000 C   0  0  0  0  0  0  0  0  0  0  0  0
   -1.7230   -1.7448    0.0000 C   0  0  0  0  0  0  0  0  0  0  0  0
   -0.4908   -2.6001    0.0000 N   0  0  0  0  0  0  0  0  0  0  0  0
   -0.6154   -4.0949    0.0000 C   0  0  0  0  0  0  0  0  0  0  0  0
    0.9805   -2.3080    0.0000 C   0  0  0  0  0  0  0  0  0  0  0  0
  1  2  1  0
  2  3  2  0
  3  4  1  0
  4  5  2  0
  5  6  1  0
  6  7  1  0
  6  8  1  0
  5  9  1  0
  9 10  2  0
 10 11  1  0
 11 12  1  0
 11 13  1  0
  1 14  1  0
 14 15  2  0
 15 16  1  0
 16 17  1  0
 17 18  1  0
 15 19  1  0
 19 20  2  0
 20 21  1  0
 21 22  2  0
 22 23  1  0
 23 24  1  0
 24 25  1  0
  1 26  1  0
 26 27  2  0
 27 28  1  0
 28 29  2  0
 29 30  1  0
 30 31  1  0
 30 32  1  0
 29 33  1  0
 33 34  2  0
 34 35  1  0
 35 36  1  0
 35 37  1  0
 10  2  1  0
 22 14  1  0
 34 26  1  0
M  END
$$$$
Molecule_30
     RDKit          2D

 35 37  0  0  0  0  0  0  0  0999 V2000
   -0.5136   -0.0000    0.0000 P   0  0  0  0  0  0  0  0  0  0  0  0
    0.2364    1.2990    0.0000 C   0  0  0  0  0  0  0  0  0  0  0  0
   -0.5136    2.5981    0.0000 C   0  0  0  0  0  0  0  0  0  0  0  0
   -2.0136    2.5981    0.0000 O   0  0  0  0  0  0  0  0  0  0  0  0
   -2.7636    3.8971    0.0000 C   0  0  0  0  0  0  0  0  0  0  0  0
   -4.2636    3.8971    0.0000 C   0  0  0  0  0  0  0  0  0  0  0  0
   -2.0136    5.1962    0.0000 C   0  0  0  0  0  0  0  0  0  0  0  0
    0.2364    3.8971    0.0000 C   0  0  0  0  0  0  0  0  0  0  0  0
    1.7364    3.8971    0.0000 C   0  0  0  0  0  0  0  0  0  0  0  0
    2.4864    2.5981    0.0000 C   0  0  0  0  0  0  0  0  0  0  0  0
    1.7364    1.2990    0.0000 C   0  0  0  0  0  0  0  0  0  0  0  0
    2.4864   -0.0000    0.0000 O   0  0  0  0  0  0  0  0  0  0  0  0
    3.9864   -0.0000    0.0000 C   0  0  0  0  0  0  0  0  0  0  0  0
    4.5724   -1.3808    0.0000 C   0  0  0  0  0  0  0  0  0  0  0  0
    4.5724    1.3808    0.0000 C   0  0  0  0  0  0  0  0  0  0  0  0
   -2.0136   -0.0000    0.0000 C   0  0  0  0  0  0  0  0  0  0  0  0
   -2.7636    1.2990    0.0000 C   0  0  0  0  0  0  0  0  0  0  0  0
   -4.2636    1.2990    0.0000 C   0  0  0  0  0  0  0  0  0  0  0  0
   -5.0136   -0.0000    0.0000 C   0  0  0  0  0  0  0  0  0  0  0  0
   -4.2636   -1.2990    0.0000 C   0  0  0  0  0  0  0  0  0  0  0  0
   -2.7636   -1.2990    0.0000 C   0  0  0  0  0  0  0  0  0  0  0  0
    0.2364   -1.2990    0.0000 C   0  0  0  0  0  0  0  0  0  0  0  0
   -0.5136   -2.5981    0.0000 C   0  0  0  0  0  0  0  0  0  0  0  0
   -2.0136   -2.5981    0.0000 O   0  0  0  0  0  0  0  0  0  0  0  0
   -2.7636   -3.8971    0.0000 C   0  0  0  0  0  0  0  0  0  0  0  0
   -4.2636   -3.8971    0.0000 C   0  0  0  0  0  0  0  0  0  0  0  0
   -2.0136   -5.1962    0.0000 C   0  0  0  0  0  0  0  0  0  0  0  0
    0.2364   -3.8971    0.0000 C   0  0  0  0  0  0  0  0  0  0  0  0
    1.7364   -3.8971    0.0000 C   0  0  0  0  0  0  0  0  0  0  0  0
    2.4864   -2.5981    0.0000 C   0  0  0  0  0  0  0  0  0  0  0  0
    1.7364   -1.2990    0.0000 C   0  0  0  0  0  0  0  0  0  0  0  0
    2.4864   -0.0000    0.0000 O   0  0  0  0  0  0  0  0  0  0  0  0
    3.9864   -0.0000    0.0000 C   0  0  0  0  0  0  0  0  0  0  0  0
    4.8891    1.1979    0.0000 C   0  0  0  0  0  0  0  0  0  0  0  0
    4.8891   -1.1979    0.0000 C   0  0  0  0  0  0  0  0  0  0  0  0
  1  2  1  0
  2  3  2  0
  3  4  1  0
  4  5  1  0
  5  6  1  0
  5  7  1  0
  3  8  1  0
  8  9  2  0
  9 10  1  0
 10 11  2  0
 11 12  1  0
 12 13  1  0
 13 14  1  0
 13 15  1  0
  1 16  1  0
 16 17  2  0
 17 18  1  0
 18 19  2  0
 19 20  1  0
 20 21  2  0
  1 22  1  0
 22 23  2  0
 23 24  1  0
 24 25  1  0
 25 26  1  0
 25 27  1  0
 23 28  1  0
 28 29  2  0
 29 30  1  0
 30 31  2  0
 31 32  1  0
 32 33  1  0
 33 34  1  0
 33 35  1  0
 11  2  1  0
 21 16  1  0
 31 22  1  0
M  END
$$$$
Molecule_31
     RDKit          2D

 35 37  0  0  0  0  0  0  0  0999 V2000
   -0.5136   -0.0000    0.0000 P   0  0  0  0  0  0  0  0  0  0  0  0
    0.2364    1.2990    0.0000 C   0  0  0  0  0  0  0  0  0  0  0  0
   -0.5136    2.5981    0.0000 C   0  0  0  0  0  0  0  0  0  0  0  0
   -2.0136    2.5981    0.0000 O   0  0  0  0  0  0  0  0  0  0  0  0
   -2.7636    3.8971    0.0000 C   0  0  0  0  0  0  0  0  0  0  0  0
   -4.2636    3.8971    0.0000 C   0  0  0  0  0  0  0  0  0  0  0  0
   -2.0136    5.1962    0.0000 C   0  0  0  0  0  0  0  0  0  0  0  0
    0.2364    3.8971    0.0000 C   0  0  0  0  0  0  0  0  0  0  0  0
    1.7364    3.8971    0.0000 C   0  0  0  0  0  0  0  0  0  0  0  0
    2.4864    2.5981    0.0000 C   0  0  0  0  0  0  0  0  0  0  0  0
    1.7364    1.2990    0.0000 C   0  0  0  0  0  0  0  0  0  0  0  0
    2.4864   -0.0000    0.0000 O   0  0  0  0  0  0  0  0  0  0  0  0
    3.9864   -0.0000    0.0000 C   0  0  0  0  0  0  0  0  0  0  0  0
    4.5724   -1.3808    0.0000 C   0  0  0  0  0  0  0  0  0  0  0  0
    4.5724    1.3808    0.0000 C   0  0  0  0  0  0  0  0  0  0  0  0
   -2.0136   -0.0000    0.0000 C   0  0  0  0  0  0  0  0  0  0  0  0
   -2.7636    1.2990    0.0000 C   0  0  0  0  0  0  0  0  0  0  0  0
   -4.2636    1.2990    0.0000 C   0  0  0  0  0  0  0  0  0  0  0  0
   -5.0136   -0.0000    0.0000 N   0  0  0  0  0  0  0  0  0  0  0  0
   -4.2636   -1.2990    0.0000 C   0  0  0  0  0  0  0  0  0  0  0  0
   -2.7636   -1.2990    0.0000 C   0  0  0  0  0  0  0  0  0  0  0  0
    0.2364   -1.2990    0.0000 C   0  0  0  0  0  0  0  0  0  0  0  0
   -0.5136   -2.5981    0.0000 C   0  0  0  0  0  0  0  0  0  0  0  0
   -2.0136   -2.5981    0.0000 O   0  0  0  0  0  0  0  0  0  0  0  0
   -2.7636   -3.8971    0.0000 C   0  0  0  0  0  0  0  0  0  0  0  0
   -4.2636   -3.8971    0.0000 C   0  0  0  0  0  0  0  0  0  0  0  0
   -2.0136   -5.1962    0.0000 C   0  0  0  0  0  0  0  0  0  0  0  0
    0.2364   -3.8971    0.0000 C   0  0  0  0  0  0  0  0  0  0  0  0
    1.7364   -3.8971    0.0000 C   0  0  0  0  0  0  0  0  0  0  0  0
    2.4864   -2.5981    0.0000 C   0  0  0  0  0  0  0  0  0  0  0  0
    1.7364   -1.2990    0.0000 C   0  0  0  0  0  0  0  0  0  0  0  0
    2.4864   -0.0000    0.0000 O   0  0  0  0  0  0  0  0  0  0  0  0
    3.9864   -0.0000    0.0000 C   0  0  0  0  0  0  0  0  0  0  0  0
    4.8891    1.1979    0.0000 C   0  0  0  0  0  0  0  0  0  0  0  0
    4.8891   -1.1979    0.0000 C   0  0  0  0  0  0  0  0  0  0  0  0
  1  2  1  0
  2  3  2  0
  3  4  1  0
  4  5  1  0
  5  6  1  0
  5  7  1  0
  3  8  1  0
  8  9  2  0
  9 10  1  0
 10 11  2  0
 11 12  1  0
 12 13  1  0
 13 14  1  0
 13 15  1  0
  1 16  1  0
 16 17  2  0
 17 18  1  0
 18 19  2  0
 19 20  1  0
 20 21  2  0
  1 22  1  0
 22 23  2  0
 23 24  1  0
 24 25  1  0
 25 26  1  0
 25 27  1  0
 23 28  1  0
 28 29  2  0
 29 30  1  0
 30 31  2  0
 31 32  1  0
 32 33  1  0
 33 34  1  0
 33 35  1  0
 11  2  1  0
 21 16  1  0
 31 22  1  0
M  END
$$$$
Molecule_32
     RDKit          2D

 40 46  0  0  0  0  0  0  0  0999 V2000
   -0.2462   -0.0879    0.0000 P   0  0  0  0  0  0  0  0  0  0  0  0
    0.3416   -1.4679    0.0000 C   0  0  0  0  0  0  0  0  0  0  0  0
    1.8036   -1.8035    0.0000 N   0  0  0  0  0  0  0  0  0  0  0  0
    1.9363   -3.2976    0.0000 N   0  0  0  0  0  0  0  0  0  0  0  0
    3.2230   -4.0685    0.0000 C   0  0  0  0  0  0  0  0  0  0  0  0
    3.1987   -5.5683    0.0000 C   0  0  0  0  0  0  0  0  0  0  0  0
    4.4855   -6.3393    0.0000 C   0  0  0  0  0  0  0  0  0  0  0  0
    5.7965   -5.6104    0.0000 C   0  0  0  0  0  0  0  0  0  0  0  0
    5.8207   -4.1106    0.0000 C   0  0  0  0  0  0  0  0  0  0  0  0
    4.5340   -3.3397    0.0000 C   0  0  0  0  0  0  0  0  0  0  0  0
    0.5562   -3.8855    0.0000 C   0  0  0  0  0  0  0  0  0  0  0  0
   -0.4293   -2.7547    0.0000 C   0  0  0  0  0  0  0  0  0  0  0  0
    0.6550    1.1112    0.0000 C   0  0  0  0  0  0  0  0  0  0  0  0
    0.2146    2.5451    0.0000 C   0  0  0  0  0  0  0  0  0  0  0  0
   -1.2043    3.0316    0.0000 C   0  0  0  0  0  0  0  0  0  0  0  0
   -2.3351    2.0461    0.0000 C   0  0  0  0  0  0  0  0  0  0  0  0
   -3.7540    2.5327    0.0000 C   0  0  0  0  0  0  0  0  0  0  0  0
   -4.0421    4.0047    0.0000 C   0  0  0  0  0  0  0  0  0  0  0  0
   -2.9113    4.9903    0.0000 C   0  0  0  0  0  0  0  0  0  0  0  0
   -1.4924    4.5037    0.0000 C   0  0  0  0  0  0  0  0  0  0  0  0
    1.4422    3.4070    0.0000 N   0  0  0  0  0  0  0  0  0  0  0  0
    2.6413    2.5058    0.0000 N   0  0  0  0  0  0  0  0  0  0  0  0
    4.0752    2.9462    0.0000 C   0  0  0  0  0  0  0  0  0  0  0  0
    5.1736    1.9246    0.0000 C   0  0  0  0  0  0  0  0  0  0  0  0
    6.6075    2.3650    0.0000 C   0  0  0  0  0  0  0  0  0  0  0  0
    6.9430    3.8270    0.0000 C   0  0  0  0  0  0  0  0  0  0  0  0
    5.8447    4.8486    0.0000 C   0  0  0  0  0  0  0  0  0  0  0  0
    4.4108    4.4082    0.0000 C   0  0  0  0  0  0  0  0  0  0  0  0
    2.1548    1.0869    0.0000 C   0  0  0  0  0  0  0  0  0  0  0  0
   -1.7353    0.0930    0.0000 C   0  0  0  0  0  0  0  0  0  0  0  0
   -2.7569   -1.0053    0.0000 N   0  0  0  0  0  0  0  0  0  0  0  0
   -4.1171   -0.3731    0.0000 N   0  0  0  0  0  0  0  0  0  0  0  0
   -5.4281   -1.1020    0.0000 C   0  0  0  0  0  0  0  0  0  0  0  0
   -6.7149   -0.3311    0.0000 C   0  0  0  0  0  0  0  0  0  0  0  0
   -8.0259   -1.0600    0.0000 C   0  0  0  0  0  0  0  0  0  0  0  0
   -8.0501   -2.5598    0.0000 C   0  0  0  0  0  0  0  0  0  0  0  0
   -6.7634   -3.3307    0.0000 C   0  0  0  0  0  0  0  0  0  0  0  0
   -5.4524   -2.6018    0.0000 C   0  0  0  0  0  0  0  0  0  0  0  0
   -3.9362    1.1159    0.0000 C   0  0  0  0  0  0  0  0  0  0  0  0
   -2.4641    1.4040    0.0000 C   0  0  0  0  0  0  0  0  0  0  0  0
  1  2  1  0
  2  3  2  0
  3  4  1  0
  4  5  1  0
  5  6  2  0
  6  7  1  0
  7  8  2  0
  8  9  1  0
  9 10  2  0
  4 11  1  0
 11 12  2  0
  1 13  1  0
 13 14  1  0
 14 15  1  0
 15 16  2  0
 16 17  1  0
 17 18  2  0
 18 19  1  0
 19 20  2  0
 14 21  2  0
 21 22  1  0
 22 23  1  0
 23 24  2  0
 24 25  1  0
 25 26  2  0
 26 27  1  0
 27 28  2  0
 22 29  1  0
  1 30  1  0
 30 31  2  0
 31 32  1  0
 32 33  1  0
 33 34  2  0
 34 35  1  0
 35 36  2  0
 36 37  1  0
 37 38  2  0
 32 39  1  0
 39 40  2  0
 12  2  1  0
 29 13  2  0
 40 30  1  0
 10  5  1  0
 20 15  1  0
 28 23  1  0
 38 33  1  0
M  END
$$$$
Molecule_33
     RDKit          2D

 30 34  0  0  0  0  0  0  0  0999 V2000
   -1.9561    0.1134    0.0000 P   0  0  0  0  0  0  0  0  0  0  0  0
   -2.3131    1.5703    0.0000 C   0  0  0  0  0  0  0  0  0  0  0  0
   -1.2299    2.6079    0.0000 C   0  0  0  0  0  0  0  0  0  0  0  0
   -1.5869    4.0648    0.0000 C   0  0  0  0  0  0  0  0  0  0  0  0
   -3.0271    4.4841    0.0000 C   0  0  0  0  0  0  0  0  0  0  0  0
   -4.1103    3.4465    0.0000 C   0  0  0  0  0  0  0  0  0  0  0  0
   -3.7533    1.9896    0.0000 C   0  0  0  0  0  0  0  0  0  0  0  0
   -4.8366    0.9519    0.0000 C   0  0  0  0  0  0  0  0  0  0  0  0
   -0.5159   -0.3059    0.0000 C   0  0  0  0  0  0  0  0  0  0  0  0
   -0.1589   -1.7628    0.0000 C   0  0  0  0  0  0  0  0  0  0  0  0
    1.2813   -2.1821    0.0000 C   0  0  0  0  0  0  0  0  0  0  0  0
    2.3645   -1.1445    0.0000 C   0  0  0  0  0  0  0  0  0  0  0  0
    3.8047   -1.5638    0.0000 C   0  0  0  0  0  0  0  0  0  0  0  0
    4.4677   -0.2183    0.0000 C   0  0  0  0  0  0  0  0  0  0  0  0
    5.9645   -0.1197    0.0000 C   0  0  0  0  0  0  0  0  0  0  0  0
    6.6275    1.2258    0.0000 C   0  0  0  0  0  0  0  0  0  0  0  0
    5.7937    2.4728    0.0000 C   0  0  0  0  0  0  0  0  0  0  0  0
    4.2970    2.3742    0.0000 C   0  0  0  0  0  0  0  0  0  0  0  0
    3.6339    1.0287    0.0000 C   0  0  0  0  0  0  0  0  0  0  0  0
    5.0146   -2.4504    0.0000 C   0  0  0  0  0  0  0  0  0  0  0  0
    3.6419   -3.0549    0.0000 C   0  0  0  0  0  0  0  0  0  0  0  0
    2.0075    0.3124    0.0000 C   0  0  0  0  0  0  0  0  0  0  0  0
    0.5673    0.7317    0.0000 C   0  0  0  0  0  0  0  0  0  0  0  0
   -3.0394   -0.9242    0.0000 C   0  0  0  0  0  0  0  0  0  0  0  0
   -4.4796   -0.5050    0.0000 C   0  0  0  0  0  0  0  0  0  0  0  0
   -5.5628   -1.5426    0.0000 C   0  0  0  0  0  0  0  0  0  0  0  0
   -5.2058   -2.9995    0.0000 C   0  0  0  0  0  0  0  0  0  0  0  0
   -3.7656   -3.4188    0.0000 C   0  0  0  0  0  0  0  0  0  0  0  0
   -2.6824   -2.3811    0.0000 C   0  0  0  0  0  0  0  0  0  0  0  0
   -1.2422   -2.8004    0.0000 C   0  0  0  0  0  0  0  0  0  0  0  0
  1  2  1  0
  2  3  2  0
  3  4  1  0
  4  5  2  0
  5  6  1  0
  6  7  2  0
  7  8  1  0
  1  9  1  0
  9 10  2  0
 10 11  1  0
 11 12  2  0
 12 13  1  0
 13 14  1  0
 14 15  2  0
 15 16  1  0
 16 17  2  0
 17 18  1  0
 18 19  2  0
 13 20  1  0
 20 21  1  0
 12 22  1  0
 22 23  2  0
  1 24  1  0
 24 25  2  0
 25 26  1  0
 26 27  2  0
 27 28  1  0
 28 29  2  0
 29 30  1  0
  7  2  1  0
 23  9  1  0
 29 24  1  0
 21 13  1  0
 19 14  1  0
M  END
$$$$
Molecule_34
     RDKit          2D

 33 36  0  0  0  0  0  0  0  0999 V2000
   -0.4875   -0.5162    0.0000 P   0  0  0  0  0  0  0  0  0  0  0  0
    0.9193    0.0044    0.0000 C   0  0  0  0  0  0  0  0  0  0  0  0
    2.0735   -0.9535    0.0000 C   0  0  0  0  0  0  0  0  0  0  0  0
    3.4803   -0.4329    0.0000 C   0  0  0  0  0  0  0  0  0  0  0  0
    3.7327    1.0457    0.0000 C   0  0  0  0  0  0  0  0  0  0  0  0
    2.5785    2.0037    0.0000 C   0  0  0  0  0  0  0  0  0  0  0  0
    2.8310    3.4823    0.0000 O   0  0  0  0  0  0  0  0  0  0  0  0
    4.2377    4.0029    0.0000 C   0  0  0  0  0  0  0  0  0  0  0  0
    4.4902    5.4815    0.0000 C   0  0  0  0  0  0  0  0  0  0  0  0
    5.3920    3.0449    0.0000 C   0  0  0  0  0  0  0  0  0  0  0  0
    1.1717    1.4830    0.0000 C   0  0  0  0  0  0  0  0  0  0  0  0
   -0.7400   -1.9948    0.0000 C   0  0  0  0  0  0  0  0  0  0  0  0
   -2.1467   -2.5155    0.0000 C   0  0  0  0  0  0  0  0  0  0  0  0
   -2.3992   -3.9941    0.0000 C   0  0  0  0  0  0  0  0  0  0  0  0
   -1.2450   -4.9520    0.0000 C   0  0  0  0  0  0  0  0  0  0  0  0
    0.1618   -4.4314    0.0000 C   0  0  0  0  0  0  0  0  0  0  0  0
    0.4143   -2.9528    0.0000 C   0  0  0  0  0  0  0  0  0  0  0  0
    1.8210   -2.4321    0.0000 N   0  0  0  0  0  0  0  0  0  0  0  0
    2.9753   -3.3901    0.0000 C   0  0  0  0  0  0  0  0  0  0  0  0
    4.3820   -2.8695    0.0000 C   0  0  0  0  0  0  0  0  0  0  0  0
    4.6345   -1.3909    0.0000 C   0  0  0  0  0  0  0  0  0  0  0  0
    3.4803   -0.4329    0.0000 C   0  0  0  0  0  0  0  0  0  0  0  0
    2.0735   -0.9535    0.0000 C   0  0  0  0  0  0  0  0  0  0  0  0
   -1.6418    0.4417    0.0000 C   0  0  0  0  0  0  0  0  0  0  0  0
   -1.3893    1.9203    0.0000 C   0  0  0  0  0  0  0  0  0  0  0  0
   -2.5435    2.8783    0.0000 C   0  0  0  0  0  0  0  0  0  0  0  0
   -3.9503    2.3577    0.0000 C   0  0  0  0  0  0  0  0  0  0  0  0
   -4.2028    0.8791    0.0000 C   0  0  0  0  0  0  0  0  0  0  0  0
   -5.6095    0.3584    0.0000 O   0  0  0  0  0  0  0  0  0  0  0  0
   -6.7638    1.3164    0.0000 C   0  0  0  0  0  0  0  0  0  0  0  0
   -8.1705    0.7957    0.0000 C   0  0  0  0  0  0  0  0  0  0  0  0
   -6.5113    2.7950    0.0000 C   0  0  0  0  0  0  0  0  0  0  0  0
   -3.0485   -0.0789    0.0000 C   0  0  0  0  0  0  0  0  0  0  0  0
  1  2  1  0
  2  3  2  0
  3  4  1  0
  4  5  2  0
  5  6  1  0
  6  7  1  0
  7  8  1  0
  8  9  1  0
  8 10  1  0
  6 11  2  0
  1 12  1  0
 12 13  2  0
 13 14  1  0
 14 15  2  0
 15 16  1  0
 16 17  2  0
 17 18  1  0
 18 19  1  0
 19 20  1  0
 20 21  1  0
 21 22  1  0
 22 23  1  0
  1 24  1  0
 24 25  2  0
 25 26  1  0
 26 27  2  0
 27 28  1  0
 28 29  1  0
 29 30  1  0
 30 31  1  0
 30 32  1  0
 28 33  2  0
 11  2  1  0
 17 12  1  0
 23 18  1  0
 33 24  1  0
M  END
$$$$
Molecule_35
     RDKit          2D

 36 39  0  0  0  0  0  0  0  0999 V2000
    0.3098    0.0020    0.0000 P   0  0  0  0  0  0  0  0  0  0  0  0
    1.6311    0.7121    0.0000 C   0  0  0  0  0  0  0  0  0  0  0  0
    2.9066   -0.0772    0.0000 C   0  0  0  0  0  0  0  0  0  0  0  0
    4.2279    0.6329    0.0000 C   0  0  0  0  0  0  0  0  0  0  0  0
    4.2736    2.1322    0.0000 C   0  0  0  0  0  0  0  0  0  0  0  0
    5.5949    2.8422    0.0000 N   0  0  0  0  0  0  0  0  0  0  0  0
    6.8705    2.0530    0.0000 C   0  0  0  0  0  0  0  0  0  0  0  0
    5.6406    4.3416    0.0000 C   0  0  0  0  0  0  0  0  0  0  0  0
    2.9981    2.9214    0.0000 C   0  0  0  0  0  0  0  0  0  0  0  0
    1.6768    2.2114    0.0000 C   0  0  0  0  0  0  0  0  0  0  0  0
    0.4012    3.0006    0.0000 N   0  0  0  0  0  0  0  0  0  0  0  0
    0.4469    4.4999    0.0000 C   0  0  0  0  0  0  0  0  0  0  0  0
   -0.5527    2.7583    0.0000 C   0  0  0  0  0  0  0  0  0  0  0  0
   -0.9658    0.7912    0.0000 C   0  0  0  0  0  0  0  0  0  0  0  0
   -2.3541    0.2232    0.0000 N   0  0  0  0  0  0  0  0  0  0  0  0
   -3.3234    1.3680    0.0000 N   0  0  0  0  0  0  0  0  0  0  0  0
   -4.8192    1.2567    0.0000 C   0  0  0  0  0  0  0  0  0  0  0  0
   -5.6635    2.4965    0.0000 C   0  0  0  0  0  0  0  0  0  0  0  0
   -7.1594    2.3853    0.0000 C   0  0  0  0  0  0  0  0  0  0  0  0
   -7.8110    1.0342    0.0000 C   0  0  0  0  0  0  0  0  0  0  0  0
   -6.9667   -0.2056    0.0000 C   0  0  0  0  0  0  0  0  0  0  0  0
   -5.4708   -0.0944    0.0000 C   0  0  0  0  0  0  0  0  0  0  0  0
   -2.5341    2.6435    0.0000 C   0  0  0  0  0  0  0  0  0  0  0  0
   -1.0771    2.2871    0.0000 C   0  0  0  0  0  0  0  0  0  0  0  0
    0.2640   -1.4973    0.0000 C   0  0  0  0  0  0  0  0  0  0  0  0
   -1.0572   -2.2074    0.0000 C   0  0  0  0  0  0  0  0  0  0  0  0
   -1.1030   -3.7067    0.0000 C   0  0  0  0  0  0  0  0  0  0  0  0
    0.1726   -4.4959    0.0000 C   0  0  0  0  0  0  0  0  0  0  0  0
    0.1269   -5.9952    0.0000 N   0  0  0  0  0  0  0  0  0  0  0  0
   -1.1944   -6.7053    0.0000 C   0  0  0  0  0  0  0  0  0  0  0  0
    1.4025   -6.7845    0.0000 C   0  0  0  0  0  0  0  0  0  0  0  0
    1.4939   -3.7859    0.0000 C   0  0  0  0  0  0  0  0  0  0  0  0
    1.5396   -2.2865    0.0000 C   0  0  0  0  0  0  0  0  0  0  0  0
    2.8609   -1.5765    0.0000 N   0  0  0  0  0  0  0  0  0  0  0  0
    4.1365   -2.3657    0.0000 C   0  0  0  0  0  0  0  0  0  0  0  0
    3.0773   -0.8093    0.0000 C   0  0  0  0  0  0  0  0  0  0  0  0
  1  2  1  0
  2  3  2  0
  3  4  1  0
  4  5  2  0
  5  6  1  0
  6  7  1  0
  6  8  1  0
  5  9  1  0
  9 10  2  0
 10 11  1  0
 11 12  1  0
 11 13  1  0
  1 14  1  0
 14 15  2  0
 15 16  1  0
 16 17  1  0
 17 18  2  0
 18 19  1  0
 19 20  2  0
 20 21  1  0
 21 22  2  0
 16 23  1  0
 23 24  2  0
  1 25  1  0
 25 26  2  0
 26 27  1  0
 27 28  2  0
 28 29  1  0
 29 30  1  0
 29 31  1  0
 28 32  1  0
 32 33  2  0
 33 34  1  0
 34 35  1  0
 34 36  1  0
 10  2  1  0
 24 14  1  0
 33 25  1  0
 22 17  1  0
M  END
$$$$
Molecule_36
     RDKit          2D

 41 43  0  0  0  0  0  0  0  0999 V2000
    0.1693    0.2092    0.0000 P   0  0  0  0  0  0  0  0  0  0  0  0
    1.0130    1.4495    0.0000 C   0  0  0  0  0  0  0  0  0  0  0  0
    2.5089    1.3390    0.0000 C   0  0  0  0  0  0  0  0  0  0  0  0
    3.1612   -0.0118    0.0000 O   0  0  0  0  0  0  0  0  0  0  0  0
    4.6571   -0.1223    0.0000 C   0  0  0  0  0  0  0  0  0  0  0  0
    5.4691   -1.3834    0.0000 C   0  0  0  0  0  0  0  0  0  0  0  0
    5.3433    1.2116    0.0000 C   0  0  0  0  0  0  0  0  0  0  0  0
    3.3525    2.5792    0.0000 C   0  0  0  0  0  0  0  0  0  0  0  0
    2.7003    3.9300    0.0000 C   0  0  0  0  0  0  0  0  0  0  0  0
    1.2043    4.0405    0.0000 C   0  0  0  0  0  0  0  0  0  0  0  0
    0.3607    2.8002    0.0000 C   0  0  0  0  0  0  0  0  0  0  0  0
   -1.1352    2.9107    0.0000 O   0  0  0  0  0  0  0  0  0  0  0  0
   -1.7875    4.2615    0.0000 C   0  0  0  0  0  0  0  0  0  0  0  0
   -3.2834    4.3720    0.0000 C   0  0  0  0  0  0  0  0  0  0  0  0
   -0.9439    5.5018    0.0000 C   0  0  0  0  0  0  0  0  0  0  0  0
   -1.3266    0.3197    0.0000 C   0  0  0  0  0  0  0  0  0  0  0  0
   -1.9789    1.6705    0.0000 C   0  0  0  0  0  0  0  0  0  0  0  0
   -3.4748    1.7810    0.0000 C   0  0  0  0  0  0  0  0  0  0  0  0
   -4.3185    0.5407    0.0000 C   0  0  0  0  0  0  0  0  0  0  0  0
   -5.8144    0.6512    0.0000 N   0  0  0  0  0  0  0  0  0  0  0  0
   -6.4667    2.0020    0.0000 C   0  0  0  0  0  0  0  0  0  0  0  0
   -6.6580   -0.5891    0.0000 C   0  0  0  0  0  0  0  0  0  0  0  0
   -3.6662   -0.8101    0.0000 C   0  0  0  0  0  0  0  0  0  0  0  0
   -2.1703   -0.9205    0.0000 C   0  0  0  0  0  0  0  0  0  0  0  0
   -1.5180   -2.2713    0.0000 N   0  0  0  0  0  0  0  0  0  0  0  0
   -2.6367   -3.2706    0.0000 C   0  0  0  0  0  0  0  0  0  0  0  0
   -0.7608   -2.5206    0.0000 C   0  0  0  0  0  0  0  0  0  0  0  0
    0.8216   -1.1415    0.0000 C   0  0  0  0  0  0  0  0  0  0  0  0
   -0.0221   -2.3818    0.0000 C   0  0  0  0  0  0  0  0  0  0  0  0
   -1.5180   -2.2713    0.0000 O   0  0  0  0  0  0  0  0  0  0  0  0
   -2.3617   -3.5116    0.0000 C   0  0  0  0  0  0  0  0  0  0  0  0
   -3.8576   -3.4011    0.0000 C   0  0  0  0  0  0  0  0  0  0  0  0
   -1.7094   -4.8623    0.0000 C   0  0  0  0  0  0  0  0  0  0  0  0
    0.6302   -3.7326    0.0000 C   0  0  0  0  0  0  0  0  0  0  0  0
    2.1261   -3.8430    0.0000 C   0  0  0  0  0  0  0  0  0  0  0  0
    2.9698   -2.6028    0.0000 C   0  0  0  0  0  0  0  0  0  0  0  0
    2.3175   -1.2520    0.0000 C   0  0  0  0  0  0  0  0  0  0  0  0
    3.1612   -0.0118    0.0000 O   0  0  0  0  0  0  0  0  0  0  0  0
    4.6571   -0.1223    0.0000 C   0  0  0  0  0  0  0  0  0  0  0  0
    5.6456    1.0059    0.0000 C   0  0  0  0  0  0  0  0  0  0  0  0
    5.1398   -1.5425    0.0000 C   0  0  0  0  0  0  0  0  0  0  0  0
  1  2  1  0
  2  3  2  0
  3  4  1  0
  4  5  1  0
  5  6  1  0
  5  7  1  0
  3  8  1  0
  8  9  2  0
  9 10  1  0
 10 11  2  0
 11 12  1  0
 12 13  1  0
 13 14  1  0
 13 15  1  0
  1 16  1  0
 16 17  2  0
 17 18  1  0
 18 19  2  0
 19 20  1  0
 20 21  1  0
 20 22  1  0
 19 23  1  0
 23 24  2  0
 24 25  1  0
 25 26  1  0
 25 27  1  0
  1 28  1  0
 28 29  2  0
 29 30  1  0
 30 31  1  0
 31 32  1  0
 31 33  1  0
 29 34  1  0
 34 35  2  0
 35 36  1  0
 36 37  2  0
 37 38  1  0
 38 39  1  0
 39 40  1  0
 39 41  1  0
 11  2  1  0
 24 16  1  0
 37 28  1  0
M  END
$$$$
Molecule_37
     RDKit          2D

 42 46  0  0  0  0  0  0  0  0999 V2000
    1.1197   -0.1957    0.0000 P   0  0  0  0  0  0  0  0  0  0  0  0
    1.8438    1.1180    0.0000 C   0  0  0  0  0  0  0  0  0  0  0  0
    3.3435    1.1477    0.0000 C   0  0  0  0  0  0  0  0  0  0  0  0
    4.0676    2.4614    0.0000 C   0  0  0  0  0  0  0  0  0  0  0  0
    3.2920    3.7453    0.0000 C   0  0  0  0  0  0  0  0  0  0  0  0
    4.0160    5.0590    0.0000 N   0  0  0  0  0  0  0  0  0  0  0  0
    5.5157    5.0887    0.0000 C   0  0  0  0  0  0  0  0  0  0  0  0
    3.2404    6.3429    0.0000 C   0  0  0  0  0  0  0  0  0  0  0  0
    1.7923    3.7155    0.0000 C   0  0  0  0  0  0  0  0  0  0  0  0
    1.0682    2.4019    0.0000 C   0  0  0  0  0  0  0  0  0  0  0  0
   -0.4315    2.3721    0.0000 N   0  0  0  0  0  0  0  0  0  0  0  0
   -1.2072    3.6560    0.0000 C   0  0  0  0  0  0  0  0  0  0  0  0
   -1.1010    1.6508    0.0000 C   0  0  0  0  0  0  0  0  0  0  0  0
   -0.3800   -0.2255    0.0000 C   0  0  0  0  0  0  0  0  0  0  0  0
   -1.2374   -1.4563    0.0000 N   0  0  0  0  0  0  0  0  0  0  0  0
   -2.6729   -1.0211    0.0000 N   0  0  0  0  0  0  0  0  0  0  0  0
   -3.8687   -1.9267    0.0000 C   0  0  0  0  0  0  0  0  0  0  0  0
   -5.2508   -1.3440    0.0000 C   0  0  0  0  0  0  0  0  0  0  0  0
   -6.4466   -2.2495    0.0000 C   0  0  0  0  0  0  0  0  0  0  0  0
   -6.2602   -3.7379    0.0000 C   0  0  0  0  0  0  0  0  0  0  0  0
   -4.8781   -4.3207    0.0000 C   0  0  0  0  0  0  0  0  0  0  0  0
   -3.6823   -3.4151    0.0000 C   0  0  0  0  0  0  0  0  0  0  0  0
   -2.7027    0.4786    0.0000 C   0  0  0  0  0  0  0  0  0  0  0  0
   -3.9334    1.3360    0.0000 C   0  0  0  0  0  0  0  0  0  0  0  0
   -3.8063    2.8306    0.0000 C   0  0  0  0  0  0  0  0  0  0  0  0
   -5.0371    3.6880    0.0000 C   0  0  0  0  0  0  0  0  0  0  0  0
   -6.3950    3.0508    0.0000 C   0  0  0  0  0  0  0  0  0  0  0  0
   -6.5222    1.5562    0.0000 C   0  0  0  0  0  0  0  0  0  0  0  0
   -5.2914    0.6988    0.0000 C   0  0  0  0  0  0  0  0  0  0  0  0
   -1.2855    0.9703    0.0000 C   0  0  0  0  0  0  0  0  0  0  0  0
    1.8954   -1.4796    0.0000 C   0  0  0  0  0  0  0  0  0  0  0  0
    1.1713   -2.7933    0.0000 C   0  0  0  0  0  0  0  0  0  0  0  0
    1.9469   -4.0772    0.0000 C   0  0  0  0  0  0  0  0  0  0  0  0
    3.4467   -4.0474    0.0000 C   0  0  0  0  0  0  0  0  0  0  0  0
    4.2223   -5.3313    0.0000 N   0  0  0  0  0  0  0  0  0  0  0  0
    3.4982   -6.6450    0.0000 C   0  0  0  0  0  0  0  0  0  0  0  0
    5.7220   -5.3015    0.0000 C   0  0  0  0  0  0  0  0  0  0  0  0
    4.1707   -2.7337    0.0000 C   0  0  0  0  0  0  0  0  0  0  0  0
    3.3951   -1.4498    0.0000 C   0  0  0  0  0  0  0  0  0  0  0  0
    4.1192   -0.1362    0.0000 N   0  0  0  0  0  0  0  0  0  0  0  0
    5.6189   -0.1064    0.0000 C   0  0  0  0  0  0  0  0  0  0  0  0
    3.8843    0.6256    0.0000 C   0  0  0  0  0  0  0  0  0  0  0  0
  1  2  1  0
  2  3  2  0
  3  4  1  0
  4  5  2  0
  5  6  1  0
  6  7  1  0
  6  8  1  0
  5  9  1  0
  9 10  2  0
 10 11  1  0
 11 12  1  0
 11 13  1  0
  1 14  1  0
 14 15  2  0
 15 16  1  0
 16 17  1  0
 17 18  2  0
 18 19  1  0
 19 20  2  0
 20 21  1  0
 21 22  2  0
 16 23  1  0
 23 24  1  0
 24 25  2  0
 25 26  1  0
 26 27  2  0
 27 28  1  0
 28 29  2  0
 23 30  2  0
  1 31  1  0
 31 32  2  0
 32 33  1  0
 33 34  2  0
 34 35  1  0
 35 36  1  0
 35 37  1  0
 34 38  1  0
 38 39  2  0
 39 40  1  0
 40 41  1  0
 40 42  1  0
 10  2  1  0
 30 14  1  0
 39 31  1  0
 22 17  1  0
 29 24  1  0
M  END
$$$$
Molecule_38
     RDKit          2D

 27 31  0  0  0  0  0  0  0  0999 V2000
    0.0000   -0.8889    0.0000 P   0  0  0  0  0  0  0  0  0  0  0  0
   -1.2990   -1.6389    0.0000 C   0  0  0  0  0  0  0  0  0  0  0  0
   -2.5981   -0.8889    0.0000 C   0  0  0  0  0  0  0  0  0  0  0  0
   -3.8971   -1.6389    0.0000 C   0  0  0  0  0  0  0  0  0  0  0  0
   -3.8971   -3.1389    0.0000 C   0  0  0  0  0  0  0  0  0  0  0  0
   -2.5981   -3.8889    0.0000 C   0  0  0  0  0  0  0  0  0  0  0  0
   -1.2990   -3.1389    0.0000 C   0  0  0  0  0  0  0  0  0  0  0  0
   -0.0000    0.6111    0.0000 C   0  0  0  0  0  0  0  0  0  0  0  0
    1.2990    1.3611    0.0000 C   0  0  0  0  0  0  0  0  0  0  0  0
    2.5981    0.6111    0.0000 C   0  0  0  0  0  0  0  0  0  0  0  0
    3.8971    1.3611    0.0000 C   0  0  0  0  0  0  0  0  0  0  0  0
    3.8971    2.8611    0.0000 C   0  0  0  0  0  0  0  0  0  0  0  0
    2.5981    3.6111    0.0000 C   0  0  0  0  0  0  0  0  0  0  0  0
    1.2990    2.8611    0.0000 C   0  0  0  0  0  0  0  0  0  0  0  0
   -0.0000    3.6111    0.0000 C   0  0  0  0  0  0  0  0  0  0  0  0
   -1.2990    2.8611    0.0000 C   0  0  0  0  0  0  0  0  0  0  0  0
   -2.5981    3.6111    0.0000 C   0  0  0  0  0  0  0  0  0  0  0  0
   -3.8971    2.8611    0.0000 C   0  0  0  0  0  0  0  0  0  0  0  0
   -3.8971    1.3611    0.0000 C   0  0  0  0  0  0  0  0  0  0  0  0
   -2.5981    0.6111    0.0000 C   0  0  0  0  0  0  0  0  0  0  0  0
   -1.2990    1.3611    0.0000 C   0  0  0  0  0  0  0  0  0  0  0  0
    1.2990   -1.6389    0.0000 C   0  0  0  0  0  0  0  0  0  0  0  0
    1.2990   -3.1389    0.0000 C   0  0  0  0  0  0  0  0  0  0  0  0
    2.5981   -3.8889    0.0000 C   0  0  0  0  0  0  0  0  0  0  0  0
    3.8971   -3.1389    0.0000 C   0  0  0  0  0  0  0  0  0  0  0  0
    3.8971   -1.6389    0.0000 C   0  0  0  0  0  0  0  0  0  0  0  0
    2.5981   -0.8889    0.0000 C   0  0  0  0  0  0  0  0  0  0  0  0
  1  2  1  0
  2  3  2  0
  3  4  1  0
  4  5  2  0
  5  6  1  0
  6  7  2  0
  1  8  1  0
  8  9  1  0
  9 10  2  0
 10 11  1  0
 11 12  2  0
 12 13  1  0
 13 14  2  0
 14 15  1  0
 15 16  2  0
 16 17  1  0
 17 18  2  0
 18 19  1  0
 19 20  2  0
 20 21  1  0
  1 22  1  0
 22 23  2  0
 23 24  1  0
 24 25  2  0
 25 26  1  0
 26 27  2  0
  7  2  1  0
 21  8  2  0
 27 22  1  0
 14  9  1  0
 21 16  1  0
M  END
$$$$
Molecule_39
     RDKit          2D

 40 44  0  0  0  0  0  0  0  0999 V2000
   -0.8901    0.1306    0.0000 P   0  0  0  0  0  0  0  0  0  0  0  0
   -1.1636    1.6055    0.0000 C   0  0  0  0  0  0  0  0  0  0  0  0
   -0.0231    2.5798    0.0000 C   0  0  0  0  0  0  0  0  0  0  0  0
   -0.2966    4.0546    0.0000 C   0  0  0  0  0  0  0  0  0  0  0  0
   -1.7106    4.5552    0.0000 C   0  0  0  0  0  0  0  0  0  0  0  0
   -1.9842    6.0300    0.0000 N   0  0  0  0  0  0  0  0  0  0  0  0
   -0.8436    7.0043    0.0000 C   0  0  0  0  0  0  0  0  0  0  0  0
   -3.3982    6.5306    0.0000 C   0  0  0  0  0  0  0  0  0  0  0  0
   -2.8511    3.5809    0.0000 C   0  0  0  0  0  0  0  0  0  0  0  0
   -2.5776    2.1060    0.0000 C   0  0  0  0  0  0  0  0  0  0  0  0
   -3.7181    1.1318    0.0000 N   0  0  0  0  0  0  0  0  0  0  0  0
   -5.1322    1.6323    0.0000 C   0  0  0  0  0  0  0  0  0  0  0  0
   -3.7668    0.3361    0.0000 C   0  0  0  0  0  0  0  0  0  0  0  0
    0.5239   -0.3699    0.0000 C   0  0  0  0  0  0  0  0  0  0  0  0
    0.7974   -1.8448    0.0000 C   0  0  0  0  0  0  0  0  0  0  0  0
    2.2114   -2.3453    0.0000 C   0  0  0  0  0  0  0  0  0  0  0  0
    3.3519   -1.3710    0.0000 C   0  0  0  0  0  0  0  0  0  0  0  0
    4.7659   -1.8716    0.0000 C   0  0  0  0  0  0  0  0  0  0  0  0
    5.5044   -0.5660    0.0000 C   0  0  0  0  0  0  0  0  0  0  0  0
    7.0044   -0.5527    0.0000 C   0  0  0  0  0  0  0  0  0  0  0  0
    7.7429    0.7529    0.0000 C   0  0  0  0  0  0  0  0  0  0  0  0
    6.9814    2.0452    0.0000 C   0  0  0  0  0  0  0  0  0  0  0  0
    5.4815    2.0320    0.0000 C   0  0  0  0  0  0  0  0  0  0  0  0
    4.7430    0.7264    0.0000 C   0  0  0  0  0  0  0  0  0  0  0  0
    5.9235   -2.8256    0.0000 C   0  0  0  0  0  0  0  0  0  0  0  0
    4.5185   -3.3511    0.0000 C   0  0  0  0  0  0  0  0  0  0  0  0
    3.0784    0.1038    0.0000 C   0  0  0  0  0  0  0  0  0  0  0  0
    1.6644    0.6044    0.0000 C   0  0  0  0  0  0  0  0  0  0  0  0
   -2.0306   -0.8437    0.0000 C   0  0  0  0  0  0  0  0  0  0  0  0
   -3.4446   -0.3431    0.0000 C   0  0  0  0  0  0  0  0  0  0  0  0
   -4.5851   -1.3174    0.0000 C   0  0  0  0  0  0  0  0  0  0  0  0
   -4.3116   -2.7922    0.0000 C   0  0  0  0  0  0  0  0  0  0  0  0
   -5.4521   -3.7665    0.0000 N   0  0  0  0  0  0  0  0  0  0  0  0
   -6.8662   -3.2660    0.0000 C   0  0  0  0  0  0  0  0  0  0  0  0
   -5.1786   -5.2414    0.0000 C   0  0  0  0  0  0  0  0  0  0  0  0
   -2.8976   -3.2928    0.0000 C   0  0  0  0  0  0  0  0  0  0  0  0
   -1.7571   -2.3185    0.0000 C   0  0  0  0  0  0  0  0  0  0  0  0
   -0.3431   -2.8191    0.0000 N   0  0  0  0  0  0  0  0  0  0  0  0
   -0.0696   -4.2939    0.0000 C   0  0  0  0  0  0  0  0  0  0  0  0
    0.9993   -2.1497    0.0000 C   0  0  0  0  0  0  0  0  0  0  0  0
  1  2  1  0
  2  3  2  0
  3  4  1  0
  4  5  2  0
  5  6  1  0
  6  7  1  0
  6  8  1  0
  5  9  1  0
  9 10  2  0
 10 11  1  0
 11 12  1  0
 11 13  1  0
  1 14  1  0
 14 15  2  0
 15 16  1  0
 16 17  2  0
 17 18  1  0
 18 19  1  0
 19 20  2  0
 20 21  1  0
 21 22  2  0
 22 23  1  0
 23 24  2  0
 18 25  1  0
 25 26  1  0
 17 27  1  0
 27 28  2  0
  1 29  1  0
 29 30  2  0
 30 31  1  0
 31 32  2  0
 32 33  1  0
 33 34  1  0
 33 35  1  0
 32 36  1  0
 36 37  2  0
 37 38  1  0
 38 39  1  0
 38 40  1  0
 10  2  1  0
 28 14  1  0
 37 29  1  0
 26 18  1  0
 24 19  1  0
M  END
$$$$
Molecule_40
     RDKit          2D

 34 36  0  0  0  0  0  0  0  0999 V2000
   -0.1204    0.3080    0.0000 P   0  0  0  0  0  0  0  0  0  0  0  0
    0.9107    1.3974    0.0000 C   0  0  0  0  0  0  0  0  0  0  0  0
    2.3697    1.0491    0.0000 C   0  0  0  0  0  0  0  0  0  0  0  0
    2.7976   -0.3885    0.0000 O   0  0  0  0  0  0  0  0  0  0  0  0
    4.2566   -0.7368    0.0000 C   0  0  0  0  0  0  0  0  0  0  0  0
    4.6845   -2.1745    0.0000 C   0  0  0  0  0  0  0  0  0  0  0  0
    3.4009    2.1385    0.0000 C   0  0  0  0  0  0  0  0  0  0  0  0
    2.9730    3.5762    0.0000 C   0  0  0  0  0  0  0  0  0  0  0  0
    1.5140    3.9245    0.0000 C   0  0  0  0  0  0  0  0  0  0  0  0
    0.4828    2.8351    0.0000 C   0  0  0  0  0  0  0  0  0  0  0  0
   -0.9762    3.1834    0.0000 O   0  0  0  0  0  0  0  0  0  0  0  0
   -1.4041    4.6211    0.0000 C   0  0  0  0  0  0  0  0  0  0  0  0
   -2.8631    4.9693    0.0000 C   0  0  0  0  0  0  0  0  0  0  0  0
   -1.5794    0.6563    0.0000 C   0  0  0  0  0  0  0  0  0  0  0  0
   -2.0073    2.0940    0.0000 C   0  0  0  0  0  0  0  0  0  0  0  0
   -3.4663    2.4423    0.0000 C   0  0  0  0  0  0  0  0  0  0  0  0
   -4.4974    1.3529    0.0000 C   0  0  0  0  0  0  0  0  0  0  0  0
   -4.0695   -0.0848    0.0000 C   0  0  0  0  0  0  0  0  0  0  0  0
   -2.6105   -0.4331    0.0000 C   0  0  0  0  0  0  0  0  0  0  0  0
   -2.1826   -1.8708    0.0000 N   0  0  0  0  0  0  0  0  0  0  0  0
   -3.4467   -2.6783    0.0000 C   0  0  0  0  0  0  0  0  0  0  0  0
   -0.8513   -2.5617    0.0000 C   0  0  0  0  0  0  0  0  0  0  0  0
    0.3075   -1.1297    0.0000 C   0  0  0  0  0  0  0  0  0  0  0  0
    1.7665   -1.4779    0.0000 C   0  0  0  0  0  0  0  0  0  0  0  0
    2.7976   -0.3885    0.0000 O   0  0  0  0  0  0  0  0  0  0  0  0
    4.2566   -0.7368    0.0000 C   0  0  0  0  0  0  0  0  0  0  0  0
    5.2877    0.3526    0.0000 C   0  0  0  0  0  0  0  0  0  0  0  0
    2.1944   -2.9156    0.0000 C   0  0  0  0  0  0  0  0  0  0  0  0
    1.1633   -4.0050    0.0000 C   0  0  0  0  0  0  0  0  0  0  0  0
   -0.2958   -3.6567    0.0000 C   0  0  0  0  0  0  0  0  0  0  0  0
   -0.7236   -2.2190    0.0000 C   0  0  0  0  0  0  0  0  0  0  0  0
   -2.1826   -1.8708    0.0000 O   0  0  0  0  0  0  0  0  0  0  0  0
   -3.2138   -2.9602    0.0000 C   0  0  0  0  0  0  0  0  0  0  0  0
   -4.6728   -2.6119    0.0000 C   0  0  0  0  0  0  0  0  0  0  0  0
  1  2  1  0
  2  3  2  0
  3  4  1  0
  4  5  1  0
  5  6  1  0
  3  7  1  0
  7  8  2  0
  8  9  1  0
  9 10  2  0
 10 11  1  0
 11 12  1  0
 12 13  1  0
  1 14  1  0
 14 15  2  0
 15 16  1  0
 16 17  2  0
 17 18  1  0
 18 19  2  0
 19 20  1  0
 20 21  1  0
 20 22  1  0
  1 23  1  0
 23 24  2  0
 24 25  1  0
 25 26  1  0
 26 27  1  0
 24 28  1  0
 28 29  2  0
 29 30  1  0
 30 31  2  0
 31 32  1  0
 32 33  1  0
 33 34  1  0
 10  2  1  0
 19 14  1  0
 31 23  1  0
M  END
$$$$
Molecule_41
     RDKit          2D

 36 41  0  0  0  0  0  0  0  0999 V2000
    0.6974   -0.4544    0.0000 P   0  0  0  0  0  0  0  0  0  0  0  0
    1.7944    0.5687    0.0000 C   0  0  0  0  0  0  0  0  0  0  0  0
    3.2289    0.1302    0.0000 C   0  0  0  0  0  0  0  0  0  0  0  0
    4.3259    1.1532    0.0000 C   0  0  0  0  0  0  0  0  0  0  0  0
    3.9884    2.6148    0.0000 C   0  0  0  0  0  0  0  0  0  0  0  0
    2.5539    3.0533    0.0000 C   0  0  0  0  0  0  0  0  0  0  0  0
    1.4569    2.0302    0.0000 C   0  0  0  0  0  0  0  0  0  0  0  0
    0.0224    2.4687    0.0000 N   0  0  0  0  0  0  0  0  0  0  0  0
   -0.3150    3.9303    0.0000 C   0  0  0  0  0  0  0  0  0  0  0  0
   -1.7495    4.3688    0.0000 C   0  0  0  0  0  0  0  0  0  0  0  0
   -2.8465    3.3457    0.0000 C   0  0  0  0  0  0  0  0  0  0  0  0
   -2.5090    1.8842    0.0000 C   0  0  0  0  0  0  0  0  0  0  0  0
   -1.0745    1.4457    0.0000 C   0  0  0  0  0  0  0  0  0  0  0  0
   -0.7371   -0.0159    0.0000 C   0  0  0  0  0  0  0  0  0  0  0  0
   -1.9350   -0.9186    0.0000 N   0  0  0  0  0  0  0  0  0  0  0  0
   -3.1637   -0.0583    0.0000 N   0  0  0  0  0  0  0  0  0  0  0  0
   -4.5820   -0.5467    0.0000 C   0  0  0  0  0  0  0  0  0  0  0  0
   -5.7141    0.4373    0.0000 C   0  0  0  0  0  0  0  0  0  0  0  0
   -7.1324   -0.0511    0.0000 C   0  0  0  0  0  0  0  0  0  0  0  0
   -7.4185   -1.5235    0.0000 C   0  0  0  0  0  0  0  0  0  0  0  0
   -6.2864   -2.5076    0.0000 C   0  0  0  0  0  0  0  0  0  0  0  0
   -4.8682   -2.0192    0.0000 C   0  0  0  0  0  0  0  0  0  0  0  0
   -2.7252    1.3762    0.0000 C   0  0  0  0  0  0  0  0  0  0  0  0
   -1.2255    1.4024    0.0000 C   0  0  0  0  0  0  0  0  0  0  0  0
    1.0349   -1.9159    0.0000 C   0  0  0  0  0  0  0  0  0  0  0  0
   -0.0621   -2.9389    0.0000 C   0  0  0  0  0  0  0  0  0  0  0  0
    0.2754   -4.4005    0.0000 C   0  0  0  0  0  0  0  0  0  0  0  0
    1.7099   -4.8390    0.0000 C   0  0  0  0  0  0  0  0  0  0  0  0
    2.8069   -3.8159    0.0000 C   0  0  0  0  0  0  0  0  0  0  0  0
    2.4694   -2.3544    0.0000 C   0  0  0  0  0  0  0  0  0  0  0  0
    3.5664   -1.3313    0.0000 N   0  0  0  0  0  0  0  0  0  0  0  0
    5.0008   -1.7698    0.0000 C   0  0  0  0  0  0  0  0  0  0  0  0
    6.0978   -0.7468    0.0000 C   0  0  0  0  0  0  0  0  0  0  0  0
    5.7603    0.7147    0.0000 C   0  0  0  0  0  0  0  0  0  0  0  0
    4.3259    1.1532    0.0000 C   0  0  0  0  0  0  0  0  0  0  0  0
    3.2289    0.1302    0.0000 C   0  0  0  0  0  0  0  0  0  0  0  0
  1  2  1  0
  2  3  2  0
  3  4  1  0
  4  5  2  0
  5  6  1  0
  6  7  2  0
  7  8  1  0
  8  9  1  0
  9 10  1  0
 10 11  1  0
 11 12  1  0
 12 13  1  0
  1 14  1  0
 14 15  2  0
 15 16  1  0
 16 17  1  0
 17 18  2  0
 18 19  1  0
 19 20  2  0
 20 21  1  0
 21 22  2  0
 16 23  1  0
 23 24  2  0
  1 25  1  0
 25 26  2  0
 26 27  1  0
 27 28  2  0
 28 29  1  0
 29 30  2  0
 30 31  1  0
 31 32  1  0
 32 33  1  0
 33 34  1  0
 34 35  1  0
 35 36  1  0
  7  2  1  0
 13  8  1  0
 24 14  1  0
 30 25  1  0
 36 31  1  0
 22 17  1  0
M  END
$$$$
Molecule_42
     RDKit          2D

 36 41  0  0  0  0  0  0  0  0999 V2000
    4.5890   -0.0000    0.0000 P   0  0  0  0  0  0  0  0  0  0  0  0
    5.3390    1.2990    0.0000 C   0  0  0  0  0  0  0  0  0  0  0  0
    6.8390    1.2990    0.0000 C   0  0  0  0  0  0  0  0  0  0  0  0
    7.5890    2.5981    0.0000 C   0  0  0  0  0  0  0  0  0  0  0  0
    6.8390    3.8971    0.0000 N   0  0  0  0  0  0  0  0  0  0  0  0
    5.3390    3.8971    0.0000 C   0  0  0  0  0  0  0  0  0  0  0  0
    4.5890    2.5981    0.0000 C   0  0  0  0  0  0  0  0  0  0  0  0
    3.0890   -0.0000    0.0000 C   0  0  0  0  0  0  0  0  0  0  0  0
    2.3390    1.2990    0.0000 C   0  0  0  0  0  0  0  0  0  0  0  0
    0.8390    1.2990    0.0000 C   0  0  0  0  0  0  0  0  0  0  0  0
    0.0890    0.0000    0.0000 C   0  0  0  0  0  0  0  0  0  0  0  0
   -1.4110    0.0000    0.0000 C   0  0  0  0  0  0  0  0  0  0  0  0
   -2.2927   -1.2135    0.0000 C   0  0  0  0  0  0  0  0  0  0  0  0
   -3.7193   -0.7500    0.0000 C   0  0  0  0  0  0  0  0  0  0  0  0
   -4.9328   -1.6317    0.0000 C   0  0  0  0  0  0  0  0  0  0  0  0
   -6.3031   -1.0216    0.0000 C   0  0  0  0  0  0  0  0  0  0  0  0
   -7.5166   -1.9033    0.0000 C   0  0  0  0  0  0  0  0  0  0  0  0
   -7.3598   -3.3950    0.0000 C   0  0  0  0  0  0  0  0  0  0  0  0
   -5.9895   -4.0051    0.0000 C   0  0  0  0  0  0  0  0  0  0  0  0
   -4.7760   -3.1235    0.0000 C   0  0  0  0  0  0  0  0  0  0  0  0
   -3.7193    0.7500    0.0000 N   0  0  0  0  0  0  0  0  0  0  0  0
   -4.9328    1.6317    0.0000 C   0  0  0  0  0  0  0  0  0  0  0  0
   -4.7760    3.1235    0.0000 C   0  0  0  0  0  0  0  0  0  0  0  0
   -5.9895    4.0051    0.0000 C   0  0  0  0  0  0  0  0  0  0  0  0
   -7.3598    3.3950    0.0000 C   0  0  0  0  0  0  0  0  0  0  0  0
   -7.5166    1.9033    0.0000 C   0  0  0  0  0  0  0  0  0  0  0  0
   -6.3031    1.0216    0.0000 C   0  0  0  0  0  0  0  0  0  0  0  0
   -2.2927    1.2135    0.0000 N   0  0  0  0  0  0  0  0  0  0  0  0
    0.8390   -1.2990    0.0000 C   0  0  0  0  0  0  0  0  0  0  0  0
    2.3390   -1.2990    0.0000 C   0  0  0  0  0  0  0  0  0  0  0  0
    5.3390   -1.2990    0.0000 C   0  0  0  0  0  0  0  0  0  0  0  0
    4.5890   -2.5981    0.0000 C   0  0  0  0  0  0  0  0  0  0  0  0
    5.3390   -3.8971    0.0000 C   0  0  0  0  0  0  0  0  0  0  0  0
    6.8390   -3.8971    0.0000 N   0  0  0  0  0  0  0  0  0  0  0  0
    7.5890   -2.5981    0.0000 C   0  0  0  0  0  0  0  0  0  0  0  0
    6.8390   -1.2990    0.0000 C   0  0  0  0  0  0  0  0  0  0  0  0
  1  2  1  0
  2  3  2  0
  3  4  1  0
  4  5  2  0
  5  6  1  0
  6  7  2  0
  1  8  1  0
  8  9  2  0
  9 10  1  0
 10 11  2  0
 11 12  1  0
 12 13  1  0
 13 14  2  0
 14 15  1  0
 15 16  2  0
 16 17  1  0
 17 18  2  0
 18 19  1  0
 19 20  2  0
 14 21  1  0
 21 22  1  0
 22 23  2  0
 23 24  1  0
 24 25  2  0
 25 26  1  0
 26 27  2  0
 21 28  1  0
 11 29  1  0
 29 30  2  0
  1 31  1  0
 31 32  2  0
 32 33  1  0
 33 34  2  0
 34 35  1  0
 35 36  2  0
  7  2  1  0
 30  8  1  0
 36 31  1  0
 28 12  2  0
 20 15  1  0
 27 22  1  0
M  END
$$$$
Molecule_43
     RDKit          2D

 37 40  0  0  0  0  0  0  0  0999 V2000
    0.3321    0.5412    0.0000 P   0  0  0  0  0  0  0  0  0  0  0  0
    1.6722   -0.1326    0.0000 C   0  0  0  0  0  0  0  0  0  0  0  0
    1.7587   -1.6301    0.0000 C   0  0  0  0  0  0  0  0  0  0  0  0
    3.0988   -2.3040    0.0000 C   0  0  0  0  0  0  0  0  0  0  0  0
    4.3525   -1.4803    0.0000 C   0  0  0  0  0  0  0  0  0  0  0  0
    5.6926   -2.1541    0.0000 N   0  0  0  0  0  0  0  0  0  0  0  0
    5.7791   -3.6516    0.0000 C   0  0  0  0  0  0  0  0  0  0  0  0
    6.9462   -1.3305    0.0000 C   0  0  0  0  0  0  0  0  0  0  0  0
    4.2659    0.0172    0.0000 C   0  0  0  0  0  0  0  0  0  0  0  0
    2.9258    0.6910    0.0000 C   0  0  0  0  0  0  0  0  0  0  0  0
    2.8393    2.1885    0.0000 N   0  0  0  0  0  0  0  0  0  0  0  0
    4.0929    3.0122    0.0000 C   0  0  0  0  0  0  0  0  0  0  0  0
    2.2349    2.7083    0.0000 C   0  0  0  0  0  0  0  0  0  0  0  0
    0.2456    2.0387    0.0000 C   0  0  0  0  0  0  0  0  0  0  0  0
    1.4992    2.8624    0.0000 C   0  0  0  0  0  0  0  0  0  0  0  0
    1.4127    4.3599    0.0000 C   0  0  0  0  0  0  0  0  0  0  0  0
    0.0725    5.0337    0.0000 C   0  0  0  0  0  0  0  0  0  0  0  0
   -1.1811    4.2101    0.0000 C   0  0  0  0  0  0  0  0  0  0  0  0
   -1.0946    2.7125    0.0000 C   0  0  0  0  0  0  0  0  0  0  0  0
   -2.3482    1.8889    0.0000 N   0  0  0  0  0  0  0  0  0  0  0  0
   -3.6883    2.5627    0.0000 C   0  0  0  0  0  0  0  0  0  0  0  0
   -4.9419    1.7390    0.0000 C   0  0  0  0  0  0  0  0  0  0  0  0
   -4.8554    0.2415    0.0000 C   0  0  0  0  0  0  0  0  0  0  0  0
   -3.5153   -0.4323    0.0000 C   0  0  0  0  0  0  0  0  0  0  0  0
   -2.2617    0.3914    0.0000 C   0  0  0  0  0  0  0  0  0  0  0  0
   -0.9216   -0.2825    0.0000 C   0  0  0  0  0  0  0  0  0  0  0  0
   -2.2617    0.3914    0.0000 C   0  0  0  0  0  0  0  0  0  0  0  0
   -3.5153   -0.4323    0.0000 C   0  0  0  0  0  0  0  0  0  0  0  0
   -3.4288   -1.9298    0.0000 C   0  0  0  0  0  0  0  0  0  0  0  0
   -4.6824   -2.7535    0.0000 N   0  0  0  0  0  0  0  0  0  0  0  0
   -6.0226   -2.0796    0.0000 C   0  0  0  0  0  0  0  0  0  0  0  0
   -4.5959   -4.2510    0.0000 C   0  0  0  0  0  0  0  0  0  0  0  0
   -2.0887   -2.6036    0.0000 C   0  0  0  0  0  0  0  0  0  0  0  0
   -0.8350   -1.7800    0.0000 C   0  0  0  0  0  0  0  0  0  0  0  0
    0.5051   -2.4538    0.0000 N   0  0  0  0  0  0  0  0  0  0  0  0
    0.5916   -3.9513    0.0000 C   0  0  0  0  0  0  0  0  0  0  0  0
    1.9208   -1.9579    0.0000 C   0  0  0  0  0  0  0  0  0  0  0  0
  1  2  1  0
  2  3  2  0
  3  4  1  0
  4  5  2  0
  5  6  1  0
  6  7  1  0
  6  8  1  0
  5  9  1  0
  9 10  2  0
 10 11  1  0
 11 12  1  0
 11 13  1  0
  1 14  1  0
 14 15  2  0
 15 16  1  0
 16 17  2  0
 17 18  1  0
 18 19  2  0
 19 20  1  0
 20 21  1  0
 21 22  1  0
 22 23  1  0
 23 24  1  0
 24 25  1  0
  1 26  1  0
 26 27  2  0
 27 28  1  0
 28 29  2  0
 29 30  1  0
 30 31  1  0
 30 32  1  0
 29 33  1  0
 33 34  2  0
 34 35  1  0
 35 36  1  0
 35 37  1  0
 10  2  1  0
 19 14  1  0
 25 20  1  0
 34 26  1  0
M  END
$$$$
Molecule_44
     RDKit          2D

 35 37  0  0  0  0  0  0  0  0999 V2000
    0.2356   -0.2491    0.0000 P   0  0  0  0  0  0  0  0  0  0  0  0
    1.6947    0.0984    0.0000 C   0  0  0  0  0  0  0  0  0  0  0  0
    2.7253   -0.9916    0.0000 C   0  0  0  0  0  0  0  0  0  0  0  0
    4.1845   -0.6441    0.0000 C   0  0  0  0  0  0  0  0  0  0  0  0
    4.6131    0.7933    0.0000 C   0  0  0  0  0  0  0  0  0  0  0  0
    3.5826    1.8833    0.0000 C   0  0  0  0  0  0  0  0  0  0  0  0
    4.0113    3.3207    0.0000 O   0  0  0  0  0  0  0  0  0  0  0  0
    5.4705    3.6682    0.0000 C   0  0  0  0  0  0  0  0  0  0  0  0
    5.8991    5.1057    0.0000 C   0  0  0  0  0  0  0  0  0  0  0  0
    6.5010    2.5783    0.0000 C   0  0  0  0  0  0  0  0  0  0  0  0
    2.1234    1.5358    0.0000 C   0  0  0  0  0  0  0  0  0  0  0  0
   -0.1931   -1.6866    0.0000 C   0  0  0  0  0  0  0  0  0  0  0  0
   -1.6523   -2.0341    0.0000 C   0  0  0  0  0  0  0  0  0  0  0  0
   -2.6828   -0.9441    0.0000 O   0  0  0  0  0  0  0  0  0  0  0  0
   -4.1420   -1.2916    0.0000 C   0  0  0  0  0  0  0  0  0  0  0  0
   -5.1726   -0.2017    0.0000 C   0  0  0  0  0  0  0  0  0  0  0  0
   -4.5707   -2.7291    0.0000 C   0  0  0  0  0  0  0  0  0  0  0  0
   -2.0810   -3.4715    0.0000 C   0  0  0  0  0  0  0  0  0  0  0  0
   -1.0504   -4.5615    0.0000 C   0  0  0  0  0  0  0  0  0  0  0  0
    0.4088   -4.2140    0.0000 C   0  0  0  0  0  0  0  0  0  0  0  0
    0.8374   -2.7765    0.0000 C   0  0  0  0  0  0  0  0  0  0  0  0
    2.2966   -2.4290    0.0000 O   0  0  0  0  0  0  0  0  0  0  0  0
    3.3272   -3.5190    0.0000 C   0  0  0  0  0  0  0  0  0  0  0  0
    4.7864   -3.1715    0.0000 C   0  0  0  0  0  0  0  0  0  0  0  0
    2.8985   -4.9564    0.0000 C   0  0  0  0  0  0  0  0  0  0  0  0
   -0.7950    0.8408    0.0000 C   0  0  0  0  0  0  0  0  0  0  0  0
   -0.3663    2.2783    0.0000 C   0  0  0  0  0  0  0  0  0  0  0  0
   -1.3969    3.3682    0.0000 C   0  0  0  0  0  0  0  0  0  0  0  0
   -2.8561    3.0207    0.0000 C   0  0  0  0  0  0  0  0  0  0  0  0
   -3.2847    1.5833    0.0000 C   0  0  0  0  0  0  0  0  0  0  0  0
   -4.7439    1.2358    0.0000 O   0  0  0  0  0  0  0  0  0  0  0  0
   -5.7744    2.3257    0.0000 C   0  0  0  0  0  0  0  0  0  0  0  0
   -7.2336    1.9782    0.0000 C   0  0  0  0  0  0  0  0  0  0  0  0
   -5.3458    3.7632    0.0000 C   0  0  0  0  0  0  0  0  0  0  0  0
   -2.2542    0.4933    0.0000 C   0  0  0  0  0  0  0  0  0  0  0  0
  1  2  1  0
  2  3  2  0
  3  4  1  0
  4  5  2  0
  5  6  1  0
  6  7  1  0
  7  8  1  0
  8  9  1  0
  8 10  1  0
  6 11  2  0
  1 12  1  0
 12 13  2  0
 13 14  1  0
 14 15  1  0
 15 16  1  0
 15 17  1  0
 13 18  1  0
 18 19  2  0
 19 20  1  0
 20 21  2  0
 21 22  1  0
 22 23  1  0
 23 24  1  0
 23 25  1  0
  1 26  1  0
 26 27  2  0
 27 28  1  0
 28 29  2  0
 29 30  1  0
 30 31  1  0
 31 32  1  0
 32 33  1  0
 32 34  1  0
 30 35  2  0
 11  2  1  0
 21 12  1  0
 35 26  1  0
M  END
$$$$
Molecule_45
     RDKit          2D

 37 41  0  0  0  0  0  0  0  0999 V2000
    0.0197   -0.5674    0.0000 P   0  0  0  0  0  0  0  0  0  0  0  0
    0.8372    0.6902    0.0000 C   0  0  0  0  0  0  0  0  0  0  0  0
    2.3352    0.6110    0.0000 C   0  0  0  0  0  0  0  0  0  0  0  0
    3.1527    1.8686    0.0000 C   0  0  0  0  0  0  0  0  0  0  0  0
    2.4723    3.2055    0.0000 C   0  0  0  0  0  0  0  0  0  0  0  0
    0.9744    3.2846    0.0000 C   0  0  0  0  0  0  0  0  0  0  0  0
    0.1569    2.0270    0.0000 C   0  0  0  0  0  0  0  0  0  0  0  0
   -1.3410    2.1062    0.0000 N   0  0  0  0  0  0  0  0  0  0  0  0
   -2.0214    3.4430    0.0000 C   0  0  0  0  0  0  0  0  0  0  0  0
   -3.5193    3.5222    0.0000 C   0  0  0  0  0  0  0  0  0  0  0  0
   -4.3369    2.2646    0.0000 C   0  0  0  0  0  0  0  0  0  0  0  0
   -3.6565    0.9278    0.0000 C   0  0  0  0  0  0  0  0  0  0  0  0
   -2.1586    0.8486    0.0000 C   0  0  0  0  0  0  0  0  0  0  0  0
   -1.4782   -0.4883    0.0000 C   0  0  0  0  0  0  0  0  0  0  0  0
   -2.1586    0.8486    0.0000 C   0  0  0  0  0  0  0  0  0  0  0  0
   -1.3410    2.1062    0.0000 O   0  0  0  0  0  0  0  0  0  0  0  0
    0.1569    2.0270    0.0000 C   0  0  0  0  0  0  0  0  0  0  0  0
    0.6458    3.4451    0.0000 C   0  0  0  0  0  0  0  0  0  0  0  0
   -3.6565    0.9278    0.0000 C   0  0  0  0  0  0  0  0  0  0  0  0
   -4.4740   -0.3299    0.0000 C   0  0  0  0  0  0  0  0  0  0  0  0
   -3.7936   -1.6667    0.0000 C   0  0  0  0  0  0  0  0  0  0  0  0
   -2.2957   -1.7459    0.0000 C   0  0  0  0  0  0  0  0  0  0  0  0
   -1.6154   -3.0827    0.0000 O   0  0  0  0  0  0  0  0  0  0  0  0
   -2.4329   -4.3403    0.0000 C   0  0  0  0  0  0  0  0  0  0  0  0
   -1.7525   -5.6772    0.0000 C   0  0  0  0  0  0  0  0  0  0  0  0
    0.7001   -1.9043    0.0000 C   0  0  0  0  0  0  0  0  0  0  0  0
   -0.1174   -3.1619    0.0000 C   0  0  0  0  0  0  0  0  0  0  0  0
    0.5629   -4.4987    0.0000 C   0  0  0  0  0  0  0  0  0  0  0  0
    2.0608   -4.5779    0.0000 C   0  0  0  0  0  0  0  0  0  0  0  0
    2.8784   -3.3203    0.0000 C   0  0  0  0  0  0  0  0  0  0  0  0
    2.1980   -1.9834    0.0000 C   0  0  0  0  0  0  0  0  0  0  0  0
    3.0155   -0.7258    0.0000 N   0  0  0  0  0  0  0  0  0  0  0  0
    4.5134   -0.8050    0.0000 C   0  0  0  0  0  0  0  0  0  0  0  0
    5.3310    0.4526    0.0000 C   0  0  0  0  0  0  0  0  0  0  0  0
    4.6506    1.7895    0.0000 C   0  0  0  0  0  0  0  0  0  0  0  0
    3.1527    1.8686    0.0000 C   0  0  0  0  0  0  0  0  0  0  0  0
    2.3352    0.6110    0.0000 C   0  0  0  0  0  0  0  0  0  0  0  0
  1  2  1  0
  2  3  2  0
  3  4  1  0
  4  5  2  0
  5  6  1  0
  6  7  2  0
  7  8  1  0
  8  9  1  0
  9 10  1  0
 10 11  1  0
 11 12  1  0
 12 13  1  0
  1 14  1  0
 14 15  2  0
 15 16  1  0
 16 17  1  0
 17 18  1  0
 15 19  1  0
 19 20  2  0
 20 21  1  0
 21 22  2  0
 22 23  1  0
 23 24  1  0
 24 25  1  0
  1 26  1  0
 26 27  2  0
 27 28  1  0
 28 29  2  0
 29 30  1  0
 30 31  2  0
 31 32  1  0
 32 33  1  0
 33 34  1  0
 34 35  1  0
 35 36  1  0
 36 37  1  0
  7  2  1  0
 13  8  1  0
 22 14  1  0
 31 26  1  0
 37 32  1  0
M  END
$$$$
Molecule_46
     RDKit          2D

 35 39  0  0  0  0  0  0  0  0999 V2000
   -0.4471   -0.0241    0.0000 P   0  0  0  0  0  0  0  0  0  0  0  0
   -1.3193    1.1962    0.0000 C   0  0  0  0  0  0  0  0  0  0  0  0
   -0.6986    2.5618    0.0000 C   0  0  0  0  0  0  0  0  0  0  0  0
    0.7943    2.7070    0.0000 O   0  0  0  0  0  0  0  0  0  0  0  0
    0.9388    3.4910    0.0000 C   0  0  0  0  0  0  0  0  0  0  0  0
   -1.5709    3.7821    0.0000 C   0  0  0  0  0  0  0  0  0  0  0  0
   -3.0638    3.6368    0.0000 C   0  0  0  0  0  0  0  0  0  0  0  0
   -3.6845    2.2713    0.0000 C   0  0  0  0  0  0  0  0  0  0  0  0
   -2.8123    1.0510    0.0000 C   0  0  0  0  0  0  0  0  0  0  0  0
   -3.4330   -0.3146    0.0000 O   0  0  0  0  0  0  0  0  0  0  0  0
   -4.9325   -0.2768    0.0000 C   0  0  0  0  0  0  0  0  0  0  0  0
    1.0459    0.1211    0.0000 C   0  0  0  0  0  0  0  0  0  0  0  0
    1.9181   -1.0992    0.0000 C   0  0  0  0  0  0  0  0  0  0  0  0
    1.2975   -2.4647    0.0000 C   0  0  0  0  0  0  0  0  0  0  0  0
    2.1697   -3.6850    0.0000 C   0  0  0  0  0  0  0  0  0  0  0  0
    3.6627   -3.5398    0.0000 C   0  0  0  0  0  0  0  0  0  0  0  0
    4.2834   -2.1742    0.0000 C   0  0  0  0  0  0  0  0  0  0  0  0
    3.4111   -0.9539    0.0000 C   0  0  0  0  0  0  0  0  0  0  0  0
    4.0318    0.4116    0.0000 C   0  0  0  0  0  0  0  0  0  0  0  0
    3.1595    1.6319    0.0000 C   0  0  0  0  0  0  0  0  0  0  0  0
    3.7802    2.9975    0.0000 C   0  0  0  0  0  0  0  0  0  0  0  0
    2.9080    4.2178    0.0000 C   0  0  0  0  0  0  0  0  0  0  0  0
    1.4150    4.0726    0.0000 C   0  0  0  0  0  0  0  0  0  0  0  0
    0.7943    2.7070    0.0000 C   0  0  0  0  0  0  0  0  0  0  0  0
    1.6666    1.4867    0.0000 C   0  0  0  0  0  0  0  0  0  0  0  0
   -1.0678   -1.3897    0.0000 C   0  0  0  0  0  0  0  0  0  0  0  0
   -2.5607   -1.5349    0.0000 C   0  0  0  0  0  0  0  0  0  0  0  0
   -3.4330   -0.3146    0.0000 O   0  0  0  0  0  0  0  0  0  0  0  0
   -4.8971   -0.6407    0.0000 C   0  0  0  0  0  0  0  0  0  0  0  0
   -3.1814   -2.9004    0.0000 C   0  0  0  0  0  0  0  0  0  0  0  0
   -2.3091   -4.1208    0.0000 C   0  0  0  0  0  0  0  0  0  0  0  0
   -0.8162   -3.9755    0.0000 C   0  0  0  0  0  0  0  0  0  0  0  0
   -0.1955   -2.6100    0.0000 C   0  0  0  0  0  0  0  0  0  0  0  0
    1.2975   -2.4647    0.0000 O   0  0  0  0  0  0  0  0  0  0  0  0
    1.8485   -3.8598    0.0000 C   0  0  0  0  0  0  0  0  0  0  0  0
  1  2  1  0
  2  3  2  0
  3  4  1  0
  4  5  1  0
  3  6  1  0
  6  7  2  0
  7  8  1  0
  8  9  2  0
  9 10  1  0
 10 11  1  0
  1 12  1  0
 12 13  1  0
 13 14  2  0
 14 15  1  0
 15 16  2  0
 16 17  1  0
 17 18  2  0
 18 19  1  0
 19 20  2  0
 20 21  1  0
 21 22  2  0
 22 23  1  0
 23 24  2  0
 24 25  1  0
  1 26  1  0
 26 27  2  0
 27 28  1  0
 28 29  1  0
 27 30  1  0
 30 31  2  0
 31 32  1  0
 32 33  2  0
 33 34  1  0
 34 35  1  0
  9  2  1  0
 25 12  2  0
 33 26  1  0
 18 13  1  0
 25 20  1  0
M  END
$$$$
Molecule_47
     RDKit          2D

 40 43  0  0  0  0  0  0  0  0999 V2000
   -0.4766   -0.2482    0.0000 P   0  0  0  0  0  0  0  0  0  0  0  0
   -0.8127    1.2137    0.0000 C   0  0  0  0  0  0  0  0  0  0  0  0
   -2.2467    1.6536    0.0000 C   0  0  0  0  0  0  0  0  0  0  0  0
   -3.3447    0.6316    0.0000 O   0  0  0  0  0  0  0  0  0  0  0  0
   -4.7787    1.0715    0.0000 C   0  0  0  0  0  0  0  0  0  0  0  0
   -5.9931    0.1909    0.0000 C   0  0  0  0  0  0  0  0  0  0  0  0
   -4.9341    2.5634    0.0000 C   0  0  0  0  0  0  0  0  0  0  0  0
   -2.5828    3.1154    0.0000 C   0  0  0  0  0  0  0  0  0  0  0  0
   -1.4848    4.1374    0.0000 C   0  0  0  0  0  0  0  0  0  0  0  0
   -0.0508    3.6976    0.0000 C   0  0  0  0  0  0  0  0  0  0  0  0
    0.2853    2.2357    0.0000 C   0  0  0  0  0  0  0  0  0  0  0  0
    1.7194    1.7958    0.0000 O   0  0  0  0  0  0  0  0  0  0  0  0
    2.8173    2.8178    0.0000 C   0  0  0  0  0  0  0  0  0  0  0  0
    4.2514    2.3779    0.0000 C   0  0  0  0  0  0  0  0  0  0  0  0
    2.4812    4.2797    0.0000 C   0  0  0  0  0  0  0  0  0  0  0  0
    0.9575   -0.6880    0.0000 C   0  0  0  0  0  0  0  0  0  0  0  0
    2.1563    0.2136    0.0000 N   0  0  0  0  0  0  0  0  0  0  0  0
    3.3842   -0.6479    0.0000 N   0  0  0  0  0  0  0  0  0  0  0  0
    4.8029   -0.1608    0.0000 C   0  0  0  0  0  0  0  0  0  0  0  0
    5.9341   -1.1460    0.0000 C   0  0  0  0  0  0  0  0  0  0  0  0
    7.3528   -0.6589    0.0000 C   0  0  0  0  0  0  0  0  0  0  0  0
    7.6404    0.8133    0.0000 C   0  0  0  0  0  0  0  0  0  0  0  0
    6.5092    1.7984    0.0000 C   0  0  0  0  0  0  0  0  0  0  0  0
    5.0905    1.3113    0.0000 C   0  0  0  0  0  0  0  0  0  0  0  0
    2.9443   -2.0820    0.0000 C   0  0  0  0  0  0  0  0  0  0  0  0
    1.4445   -2.1068    0.0000 C   0  0  0  0  0  0  0  0  0  0  0  0
   -1.5745   -1.2702    0.0000 C   0  0  0  0  0  0  0  0  0  0  0  0
   -1.2385   -2.7320    0.0000 C   0  0  0  0  0  0  0  0  0  0  0  0
    0.1956   -3.1719    0.0000 O   0  0  0  0  0  0  0  0  0  0  0  0
    0.5317   -4.6337    0.0000 C   0  0  0  0  0  0  0  0  0  0  0  0
    1.9657   -5.0736    0.0000 C   0  0  0  0  0  0  0  0  0  0  0  0
   -0.5663   -5.6557    0.0000 C   0  0  0  0  0  0  0  0  0  0  0  0
   -2.3364   -3.7540    0.0000 C   0  0  0  0  0  0  0  0  0  0  0  0
   -3.7705   -3.3141    0.0000 C   0  0  0  0  0  0  0  0  0  0  0  0
   -4.1066   -1.8523    0.0000 C   0  0  0  0  0  0  0  0  0  0  0  0
   -3.0086   -0.8303    0.0000 C   0  0  0  0  0  0  0  0  0  0  0  0
   -3.3447    0.6316    0.0000 O   0  0  0  0  0  0  0  0  0  0  0  0
   -4.7787    1.0715    0.0000 C   0  0  0  0  0  0  0  0  0  0  0  0
   -5.2905    2.4815    0.0000 C   0  0  0  0  0  0  0  0  0  0  0  0
   -5.7439   -0.0768    0.0000 C   0  0  0  0  0  0  0  0  0  0  0  0
  1  2  1  0
  2  3  2  0
  3  4  1  0
  4  5  1  0
  5  6  1  0
  5  7  1  0
  3  8  1  0
  8  9  2  0
  9 10  1  0
 10 11  2  0
 11 12  1  0
 12 13  1  0
 13 14  1  0
 13 15  1  0
  1 16  1  0
 16 17  2  0
 17 18  1  0
 18 19  1  0
 19 20  2  0
 20 21  1  0
 21 22  2  0
 22 23  1  0
 23 24  2  0
 18 25  1  0
 25 26  2  0
  1 27  1  0
 27 28  2  0
 28 29  1  0
 29 30  1  0
 30 31  1  0
 30 32  1  0
 28 33  1  0
 33 34  2  0
 34 35  1  0
 35 36  2  0
 36 37  1  0
 37 38  1  0
 38 39  1  0
 38 40  1  0
 11  2  1  0
 26 16  1  0
 36 27  1  0
 24 19  1  0
M  END
$$$$
Molecule_48
     RDKit          2D

 34 38  0  0  0  0  0  0  0  0999 V2000
    0.0158   -0.4143    0.0000 P   0  0  0  0  0  0  0  0  0  0  0  0
    0.8167   -1.6825    0.0000 C   0  0  0  0  0  0  0  0  0  0  0  0
    0.1189   -3.0103    0.0000 C   0  0  0  0  0  0  0  0  0  0  0  0
    0.9199   -4.2786    0.0000 C   0  0  0  0  0  0  0  0  0  0  0  0
    2.4187   -4.2190    0.0000 C   0  0  0  0  0  0  0  0  0  0  0  0
    3.1165   -2.8912    0.0000 C   0  0  0  0  0  0  0  0  0  0  0  0
    2.3156   -1.6230    0.0000 C   0  0  0  0  0  0  0  0  0  0  0  0
    3.0134   -0.2952    0.0000 N   0  0  0  0  0  0  0  0  0  0  0  0
    4.5122   -0.2357    0.0000 C   0  0  0  0  0  0  0  0  0  0  0  0
    5.2101    1.0921    0.0000 C   0  0  0  0  0  0  0  0  0  0  0  0
    4.4091    2.3604    0.0000 C   0  0  0  0  0  0  0  0  0  0  0  0
    2.9103    2.3008    0.0000 C   0  0  0  0  0  0  0  0  0  0  0  0
    2.2124    0.9730    0.0000 C   0  0  0  0  0  0  0  0  0  0  0  0
   -1.4830   -0.4739    0.0000 C   0  0  0  0  0  0  0  0  0  0  0  0
   -2.2840    0.7944    0.0000 C   0  0  0  0  0  0  0  0  0  0  0  0
   -3.7828    0.7348    0.0000 C   0  0  0  0  0  0  0  0  0  0  0  0
   -4.4807   -0.5929    0.0000 C   0  0  0  0  0  0  0  0  0  0  0  0
   -3.6797   -1.8612    0.0000 C   0  0  0  0  0  0  0  0  0  0  0  0
   -2.1809   -1.8016    0.0000 C   0  0  0  0  0  0  0  0  0  0  0  0
   -1.3799   -3.0699    0.0000 N   0  0  0  0  0  0  0  0  0  0  0  0
   -2.0777   -4.3977    0.0000 C   0  0  0  0  0  0  0  0  0  0  0  0
   -0.5994   -3.2319    0.0000 C   0  0  0  0  0  0  0  0  0  0  0  0
    0.7136    0.9135    0.0000 C   0  0  0  0  0  0  0  0  0  0  0  0
    2.2124    0.9730    0.0000 C   0  0  0  0  0  0  0  0  0  0  0  0
    2.9103    2.3008    0.0000 C   0  0  0  0  0  0  0  0  0  0  0  0
    2.1093    3.5691    0.0000 C   0  0  0  0  0  0  0  0  0  0  0  0
    0.6105    3.5095    0.0000 C   0  0  0  0  0  0  0  0  0  0  0  0
   -0.0874    2.1817    0.0000 C   0  0  0  0  0  0  0  0  0  0  0  0
   -1.5862    2.1222    0.0000 N   0  0  0  0  0  0  0  0  0  0  0  0
   -2.3872    3.3904    0.0000 C   0  0  0  0  0  0  0  0  0  0  0  0
   -3.8860    3.3309    0.0000 C   0  0  0  0  0  0  0  0  0  0  0  0
   -4.5838    2.0031    0.0000 C   0  0  0  0  0  0  0  0  0  0  0  0
   -3.7828    0.7348    0.0000 C   0  0  0  0  0  0  0  0  0  0  0  0
   -2.2840    0.7944    0.0000 C   0  0  0  0  0  0  0  0  0  0  0  0
  1  2  1  0
  2  3  2  0
  3  4  1  0
  4  5  2  0
  5  6  1  0
  6  7  2  0
  7  8  1  0
  8  9  1  0
  9 10  1  0
 10 11  1  0
 11 12  1  0
 12 13  1  0
  1 14  1  0
 14 15  2  0
 15 16  1  0
 16 17  2  0
 17 18  1  0
 18 19  2  0
 19 20  1  0
 20 21  1  0
 20 22  1  0
  1 23  1  0
 23 24  2  0
 24 25  1  0
 25 26  2  0
 26 27  1  0
 27 28  2  0
 28 29  1  0
 29 30  1  0
 30 31  1  0
 31 32  1  0
 32 33  1  0
 33 34  1  0
  7  2  1  0
 13  8  1  0
 19 14  1  0
 28 23  1  0
 34 29  1  0
M  END
$$$$
Molecule_49
     RDKit          2D

 35 37  0  0  0  0  0  0  0  0999 V2000
   -0.5136   -0.0000    0.0000 P   0  0  0  0  0  0  0  0  0  0  0  0
    0.2364    1.2990    0.0000 C   0  0  0  0  0  0  0  0  0  0  0  0
   -0.5136    2.5981    0.0000 C   0  0  0  0  0  0  0  0  0  0  0  0
   -2.0136    2.5981    0.0000 O   0  0  0  0  0  0  0  0  0  0  0  0
   -2.7636    3.8971    0.0000 C   0  0  0  0  0  0  0  0  0  0  0  0
   -4.2636    3.8971    0.0000 C   0  0  0  0  0  0  0  0  0  0  0  0
   -2.0136    5.1962    0.0000 C   0  0  0  0  0  0  0  0  0  0  0  0
    0.2364    3.8971    0.0000 C   0  0  0  0  0  0  0  0  0  0  0  0
    1.7364    3.8971    0.0000 C   0  0  0  0  0  0  0  0  0  0  0  0
    2.4864    2.5981    0.0000 C   0  0  0  0  0  0  0  0  0  0  0  0
    1.7364    1.2990    0.0000 C   0  0  0  0  0  0  0  0  0  0  0  0
    2.4864   -0.0000    0.0000 O   0  0  0  0  0  0  0  0  0  0  0  0
    3.9864   -0.0000    0.0000 C   0  0  0  0  0  0  0  0  0  0  0  0
    4.5724   -1.3808    0.0000 C   0  0  0  0  0  0  0  0  0  0  0  0
    4.5724    1.3808    0.0000 C   0  0  0  0  0  0  0  0  0  0  0  0
   -2.0136   -0.0000    0.0000 C   0  0  0  0  0  0  0  0  0  0  0  0
   -2.7636    1.2990    0.0000 C   0  0  0  0  0  0  0  0  0  0  0  0
   -4.2636    1.2990    0.0000 C   0  0  0  0  0  0  0  0  0  0  0  0
   -5.0136   -0.0000    0.0000 C   0  0  0  0  0  0  0  0  0  0  0  0
   -4.2636   -1.2990    0.0000 C   0  0  0  0  0  0  0  0  0  0  0  0
   -2.7636   -1.2990    0.0000 C   0  0  0  0  0  0  0  0  0  0  0  0
    0.2364   -1.2990    0.0000 C   0  0  0  0  0  0  0  0  0  0  0  0
   -0.5136   -2.5981    0.0000 C   0  0  0  0  0  0  0  0  0  0  0  0
   -2.0136   -2.5981    0.0000 O   0  0  0  0  0  0  0  0  0  0  0  0
   -2.7636   -3.8971    0.0000 C   0  0  0  0  0  0  0  0  0  0  0  0
   -4.2636   -3.8971    0.0000 C   0  0  0  0  0  0  0  0  0  0  0  0
   -2.0136   -5.1962    0.0000 C   0  0  0  0  0  0  0  0  0  0  0  0
    0.2364   -3.8971    0.0000 C   0  0  0  0  0  0  0  0  0  0  0  0
    1.7364   -3.8971    0.0000 C   0  0  0  0  0  0  0  0  0  0  0  0
    2.4864   -2.5981    0.0000 C   0  0  0  0  0  0  0  0  0  0  0  0
    1.7364   -1.2990    0.0000 C   0  0  0  0  0  0  0  0  0  0  0  0
    2.4864   -0.0000    0.0000 O   0  0  0  0  0  0  0  0  0  0  0  0
    3.9864   -0.0000    0.0000 C   0  0  0  0  0  0  0  0  0  0  0  0
    4.8891    1.1979    0.0000 C   0  0  0  0  0  0  0  0  0  0  0  0
    4.8891   -1.1979    0.0000 C   0  0  0  0  0  0  0  0  0  0  0  0
  1  2  1  0
  2  3  2  0
  3  4  1  0
  4  5  1  0
  5  6  1  0
  5  7  1  0
  3  8  1  0
  8  9  2  0
  9 10  1  0
 10 11  2  0
 11 12  1  0
 12 13  1  0
 13 14  1  0
 13 15  1  0
  1 16  1  0
 16 17  2  0
 17 18  1  0
 18 19  2  0
 19 20  1  0
 20 21  2  0
  1 22  1  0
 22 23  2  0
 23 24  1  0
 24 25  1  0
 25 26  1  0
 25 27  1  0
 23 28  1  0
 28 29  2  0
 29 30  1  0
 30 31  2  0
 31 32  1  0
 32 33  1  0
 33 34  1  0
 33 35  1  0
 11  2  1  0
 21 16  1  0
 31 22  1  0
M  END
$$$$
Molecule_50
     RDKit          2D

 27 31  0  0  0  0  0  0  0  0999 V2000
    0.0000   -0.8889    0.0000 P   0  0  0  0  0  0  0  0  0  0  0  0
   -1.2990   -1.6389    0.0000 C   0  0  0  0  0  0  0  0  0  0  0  0
   -2.5981   -0.8889    0.0000 C   0  0  0  0  0  0  0  0  0  0  0  0
   -3.8971   -1.6389    0.0000 C   0  0  0  0  0  0  0  0  0  0  0  0
   -3.8971   -3.1389    0.0000 N   0  0  0  0  0  0  0  0  0  0  0  0
   -2.5981   -3.8889    0.0000 C   0  0  0  0  0  0  0  0  0  0  0  0
   -1.2990   -3.1389    0.0000 C   0  0  0  0  0  0  0  0  0  0  0  0
   -0.0000    0.6111    0.0000 C   0  0  0  0  0  0  0  0  0  0  0  0
    1.2990    1.3611    0.0000 C   0  0  0  0  0  0  0  0  0  0  0  0
    2.5981    0.6111    0.0000 C   0  0  0  0  0  0  0  0  0  0  0  0
    3.8971    1.3611    0.0000 C   0  0  0  0  0  0  0  0  0  0  0  0
    3.8971    2.8611    0.0000 C   0  0  0  0  0  0  0  0  0  0  0  0
    2.5981    3.6111    0.0000 C   0  0  0  0  0  0  0  0  0  0  0  0
    1.2990    2.8611    0.0000 C   0  0  0  0  0  0  0  0  0  0  0  0
   -0.0000    3.6111    0.0000 C   0  0  0  0  0  0  0  0  0  0  0  0
   -1.2990    2.8611    0.0000 C   0  0  0  0  0  0  0  0  0  0  0  0
   -2.5981    3.6111    0.0000 C   0  0  0  0  0  0  0  0  0  0  0  0
   -3.8971    2.8611    0.0000 C   0  0  0  0  0  0  0  0  0  0  0  0
   -3.8971    1.3611    0.0000 C   0  0  0  0  0  0  0  0  0  0  0  0
   -2.5981    0.6111    0.0000 C   0  0  0  0  0  0  0  0  0  0  0  0
   -1.2990    1.3611    0.0000 C   0  0  0  0  0  0  0  0  0  0  0  0
    1.2990   -1.6389    0.0000 C   0  0  0  0  0  0  0  0  0  0  0  0
    1.2990   -3.1389    0.0000 C   0  0  0  0  0  0  0  0  0  0  0  0
    2.5981   -3.8889    0.0000 C   0  0  0  0  0  0  0  0  0  0  0  0
    3.8971   -3.1389    0.0000 N   0  0  0  0  0  0  0  0  0  0  0  0
    3.8971   -1.6389    0.0000 C   0  0  0  0  0  0  0  0  0  0  0  0
    2.5981   -0.8889    0.0000 C   0  0  0  0  0  0  0  0  0  0  0  0
  1  2  1  0
  2  3  2  0
  3  4  1  0
  4  5  2  0
  5  6  1  0
  6  7  2  0
  1  8  1  0
  8  9  1  0
  9 10  2  0
 10 11  1  0
 11 12  2  0
 12 13  1  0
 13 14  2  0
 14 15  1  0
 15 16  2  0
 16 17  1  0
 17 18  2  0
 18 19  1  0
 19 20  2  0
 20 21  1  0
  1 22  1  0
 22 23  2  0
 23 24  1  0
 24 25  2  0
 25 26  1  0
 26 27  2  0
  7  2  1  0
 21  8  2  0
 27 22  1  0
 14  9  1  0
 21 16  1  0
M  END
$$$$
Molecule_51
     RDKit          2D

 25 28  0  0  0  0  0  0  0  0999 V2000
    0.9525   -0.0000    0.0000 P   0  0  0  0  0  0  0  0  0  0  0  0
    2.3698    0.4910    0.0000 C   0  0  0  0  0  0  0  0  0  0  0  0
    3.5037   -0.4910    0.0000 C   0  0  0  0  0  0  0  0  0  0  0  0
    4.9211   -0.0000    0.0000 C   0  0  0  0  0  0  0  0  0  0  0  0
    5.2046    1.4730    0.0000 N   0  0  0  0  0  0  0  0  0  0  0  0
    4.0707    2.4550    0.0000 C   0  0  0  0  0  0  0  0  0  0  0  0
    2.6533    1.9640    0.0000 C   0  0  0  0  0  0  0  0  0  0  0  0
    0.6690   -1.4730    0.0000 C   0  0  0  0  0  0  0  0  0  0  0  0
    1.8029   -2.4550    0.0000 C   0  0  0  0  0  0  0  0  0  0  0  0
    1.5194   -3.9279    0.0000 C   0  0  0  0  0  0  0  0  0  0  0  0
    0.1021   -4.4189    0.0000 C   0  0  0  0  0  0  0  0  0  0  0  0
   -1.0318   -3.4369    0.0000 C   0  0  0  0  0  0  0  0  0  0  0  0
   -0.7484   -1.9640    0.0000 C   0  0  0  0  0  0  0  0  0  0  0  0
   -1.8823   -0.9820    0.0000 N   0  0  0  0  0  0  0  0  0  0  0  0
   -3.2996   -1.4730    0.0000 C   0  0  0  0  0  0  0  0  0  0  0  0
   -4.4335   -0.4910    0.0000 C   0  0  0  0  0  0  0  0  0  0  0  0
   -4.1500    0.9820    0.0000 C   0  0  0  0  0  0  0  0  0  0  0  0
   -2.7327    1.4730    0.0000 C   0  0  0  0  0  0  0  0  0  0  0  0
   -1.5988    0.4910    0.0000 C   0  0  0  0  0  0  0  0  0  0  0  0
   -0.1814    0.9820    0.0000 C   0  0  0  0  0  0  0  0  0  0  0  0
    0.1021    2.4550    0.0000 C   0  0  0  0  0  0  0  0  0  0  0  0
   -1.0318    3.4369    0.0000 C   0  0  0  0  0  0  0  0  0  0  0  0
   -2.4492    2.9459    0.0000 N   0  0  0  0  0  0  0  0  0  0  0  0
   -2.7327    1.4730    0.0000 C   0  0  0  0  0  0  0  0  0  0  0  0
   -1.5988    0.4910    0.0000 C   0  0  0  0  0  0  0  0  0  0  0  0
  1  2  1  0
  2  3  2  0
  3  4  1  0
  4  5  2  0
  5  6  1  0
  6  7  2  0
  1  8  1  0
  8  9  2  0
  9 10  1  0
 10 11  2  0
 11 12  1  0
 12 13  2  0
 13 14  1  0
 14 15  1  0
 15 16  1  0
 16 17  1  0
 17 18  1  0
 18 19  1  0
  1 20  1  0
 20 21  2  0
 21 22  1  0
 22 23  2  0
 23 24  1  0
 24 25  2  0
  7  2  1  0
 13  8  1  0
 19 14  1  0
 25 20  1  0
M  END
$$$$
Molecule_52
     RDKit          2D

 32 35  0  0  0  0  0  0  0  0999 V2000
   -0.9192   -0.1670    0.0000 P   0  0  0  0  0  0  0  0  0  0  0  0
   -1.1798    1.3102    0.0000 C   0  0  0  0  0  0  0  0  0  0  0  0
   -2.5893    1.8232    0.0000 C   0  0  0  0  0  0  0  0  0  0  0  0
   -3.7383    0.8589    0.0000 O   0  0  0  0  0  0  0  0  0  0  0  0
   -5.0749    1.5399    0.0000 C   0  0  0  0  0  0  0  0  0  0  0  0
   -2.8499    3.3004    0.0000 C   0  0  0  0  0  0  0  0  0  0  0  0
   -1.7009    4.2646    0.0000 C   0  0  0  0  0  0  0  0  0  0  0  0
   -0.2913    3.7517    0.0000 C   0  0  0  0  0  0  0  0  0  0  0  0
   -0.0308    2.2745    0.0000 C   0  0  0  0  0  0  0  0  0  0  0  0
    1.3788    1.7615    0.0000 O   0  0  0  0  0  0  0  0  0  0  0  0
    2.5278    2.7258    0.0000 C   0  0  0  0  0  0  0  0  0  0  0  0
    0.4904   -0.6799    0.0000 C   0  0  0  0  0  0  0  0  0  0  0  0
    1.7339    0.1589    0.0000 N   0  0  0  0  0  0  0  0  0  0  0  0
    2.9159   -0.7645    0.0000 N   0  0  0  0  0  0  0  0  0  0  0  0
    4.3578   -0.3510    0.0000 C   0  0  0  0  0  0  0  0  0  0  0  0
    5.4369   -1.3929    0.0000 C   0  0  0  0  0  0  0  0  0  0  0  0
    6.8787   -0.9794    0.0000 C   0  0  0  0  0  0  0  0  0  0  0  0
    7.2415    0.4761    0.0000 C   0  0  0  0  0  0  0  0  0  0  0  0
    6.1625    1.5180    0.0000 C   0  0  0  0  0  0  0  0  0  0  0  0
    4.7206    1.1045    0.0000 C   0  0  0  0  0  0  0  0  0  0  0  0
    2.4030   -2.1741    0.0000 C   0  0  0  0  0  0  0  0  0  0  0  0
    0.9039   -2.1218    0.0000 C   0  0  0  0  0  0  0  0  0  0  0  0
   -2.0682   -1.1312    0.0000 C   0  0  0  0  0  0  0  0  0  0  0  0
   -3.4778   -0.6183    0.0000 C   0  0  0  0  0  0  0  0  0  0  0  0
   -3.7383    0.8589    0.0000 O   0  0  0  0  0  0  0  0  0  0  0  0
   -5.1999    1.1962    0.0000 C   0  0  0  0  0  0  0  0  0  0  0  0
   -4.6268   -1.5825    0.0000 C   0  0  0  0  0  0  0  0  0  0  0  0
   -4.3663   -3.0597    0.0000 C   0  0  0  0  0  0  0  0  0  0  0  0
   -2.9567   -3.5727    0.0000 C   0  0  0  0  0  0  0  0  0  0  0  0
   -1.8077   -2.6084    0.0000 C   0  0  0  0  0  0  0  0  0  0  0  0
   -0.3981   -3.1214    0.0000 O   0  0  0  0  0  0  0  0  0  0  0  0
   -0.1376   -4.5986    0.0000 C   0  0  0  0  0  0  0  0  0  0  0  0
  1  2  1  0
  2  3  2  0
  3  4  1  0
  4  5  1  0
  3  6  1  0
  6  7  2  0
  7  8  1  0
  8  9  2  0
  9 10  1  0
 10 11  1  0
  1 12  1  0
 12 13  2  0
 13 14  1  0
 14 15  1  0
 15 16  2  0
 16 17  1  0
 17 18  2  0
 18 19  1  0
 19 20  2  0
 14 21  1  0
 21 22  2  0
  1 23  1  0
 23 24  2  0
 24 25  1  0
 25 26  1  0
 24 27  1  0
 27 28  2  0
 28 29  1  0
 29 30  2  0
 30 31  1  0
 31 32  1  0
  9  2  1  0
 22 12  1  0
 30 23  1  0
 20 15  1  0
M  END
$$$$
Molecule_53
     RDKit          2D

 37 39  0  0  0  0  0  0  0  0999 V2000
   -0.0140    0.0478    0.0000 P   0  0  0  0  0  0  0  0  0  0  0  0
    1.2801    0.8063    0.0000 C   0  0  0  0  0  0  0  0  0  0  0  0
    2.5840    0.0649    0.0000 C   0  0  0  0  0  0  0  0  0  0  0  0
    2.5939   -1.4351    0.0000 N   0  0  0  0  0  0  0  0  0  0  0  0
    2.0242   -1.9926    0.0000 C   0  0  0  0  0  0  0  0  0  0  0  0
    4.0385   -1.8390    0.0000 C   0  0  0  0  0  0  0  0  0  0  0  0
    3.8781    0.8234    0.0000 C   0  0  0  0  0  0  0  0  0  0  0  0
    3.8683    2.3234    0.0000 C   0  0  0  0  0  0  0  0  0  0  0  0
    2.5643    3.0648    0.0000 C   0  0  0  0  0  0  0  0  0  0  0  0
    1.2702    2.3063    0.0000 C   0  0  0  0  0  0  0  0  0  0  0  0
   -0.0337    3.0477    0.0000 N   0  0  0  0  0  0  0  0  0  0  0  0
    0.1393    4.5377    0.0000 C   0  0  0  0  0  0  0  0  0  0  0  0
   -1.4729    2.6249    0.0000 C   0  0  0  0  0  0  0  0  0  0  0  0
   -0.0041   -1.4522    0.0000 C   0  0  0  0  0  0  0  0  0  0  0  0
   -1.2982   -2.2107    0.0000 C   0  0  0  0  0  0  0  0  0  0  0  0
   -2.6021   -1.4693    0.0000 O   0  0  0  0  0  0  0  0  0  0  0  0
   -3.8962   -2.2278    0.0000 C   0  0  0  0  0  0  0  0  0  0  0  0
   -5.2002   -1.4863    0.0000 C   0  0  0  0  0  0  0  0  0  0  0  0
   -1.2883   -3.7107    0.0000 C   0  0  0  0  0  0  0  0  0  0  0  0
    0.0156   -4.4521    0.0000 C   0  0  0  0  0  0  0  0  0  0  0  0
    1.3097   -3.6936    0.0000 C   0  0  0  0  0  0  0  0  0  0  0  0
    1.2998   -2.1936    0.0000 C   0  0  0  0  0  0  0  0  0  0  0  0
    2.5939   -1.4351    0.0000 O   0  0  0  0  0  0  0  0  0  0  0  0
    3.8978   -2.1765    0.0000 C   0  0  0  0  0  0  0  0  0  0  0  0
    5.1919   -1.4180    0.0000 C   0  0  0  0  0  0  0  0  0  0  0  0
   -1.3179    0.7892    0.0000 C   0  0  0  0  0  0  0  0  0  0  0  0
   -1.3278    2.2892    0.0000 C   0  0  0  0  0  0  0  0  0  0  0  0
   -0.0337    3.0477    0.0000 N   0  0  0  0  0  0  0  0  0  0  0  0
   -0.2263    4.5353    0.0000 C   0  0  0  0  0  0  0  0  0  0  0  0
    1.4109    2.6438    0.0000 C   0  0  0  0  0  0  0  0  0  0  0  0
   -2.6317    3.0306    0.0000 C   0  0  0  0  0  0  0  0  0  0  0  0
   -3.9258    2.2721    0.0000 C   0  0  0  0  0  0  0  0  0  0  0  0
   -3.9159    0.7722    0.0000 C   0  0  0  0  0  0  0  0  0  0  0  0
   -2.6120    0.0307    0.0000 C   0  0  0  0  0  0  0  0  0  0  0  0
   -2.6021   -1.4693    0.0000 N   0  0  0  0  0  0  0  0  0  0  0  0
   -4.0413   -1.8921    0.0000 C   0  0  0  0  0  0  0  0  0  0  0  0
   -1.5164   -2.5042    0.0000 C   0  0  0  0  0  0  0  0  0  0  0  0
  1  2  1  0
  2  3  2  0
  3  4  1  0
  4  5  1  0
  4  6  1  0
  3  7  1  0
  7  8  2  0
  8  9  1  0
  9 10  2  0
 10 11  1  0
 11 12  1  0
 11 13  1  0
  1 14  1  0
 14 15  2  0
 15 16  1  0
 16 17  1  0
 17 18  1  0
 15 19  1  0
 19 20  2  0
 20 21  1  0
 21 22  2  0
 22 23  1  0
 23 24  1  0
 24 25  1  0
  1 26  1  0
 26 27  2  0
 27 28  1  0
 28 29  1  0
 28 30  1  0
 27 31  1  0
 31 32  2  0
 32 33  1  0
 33 34  2  0
 34 35  1  0
 35 36  1  0
 35 37  1  0
 10  2  1  0
 22 14  1  0
 34 26  1  0
M  END
$$$$
Molecule_54
     RDKit          2D

 26 29  0  0  0  0  0  0  0  0999 V2000
    1.3135   -0.0205    0.0000 P   0  0  0  0  0  0  0  0  0  0  0  0
    2.5008    0.8961    0.0000 C   0  0  0  0  0  0  0  0  0  0  0  0
    3.8883    0.3262    0.0000 C   0  0  0  0  0  0  0  0  0  0  0  0
    5.0756    1.2429    0.0000 C   0  0  0  0  0  0  0  0  0  0  0  0
    4.8754    2.7295    0.0000 C   0  0  0  0  0  0  0  0  0  0  0  0
    3.4879    3.2994    0.0000 C   0  0  0  0  0  0  0  0  0  0  0  0
    2.3006    2.3827    0.0000 C   0  0  0  0  0  0  0  0  0  0  0  0
    0.9131    2.9527    0.0000 C   0  0  0  0  0  0  0  0  0  0  0  0
   -0.0740    0.5494    0.0000 C   0  0  0  0  0  0  0  0  0  0  0  0
   -1.3507   -0.2381    0.0000 N   0  0  0  0  0  0  0  0  0  0  0  0
   -2.4942    0.7327    0.0000 N   0  0  0  0  0  0  0  0  0  0  0  0
   -3.9517    0.3782    0.0000 C   0  0  0  0  0  0  0  0  0  0  0  0
   -4.9874    1.4632    0.0000 C   0  0  0  0  0  0  0  0  0  0  0  0
   -6.4449    1.1087    0.0000 C   0  0  0  0  0  0  0  0  0  0  0  0
   -6.8667   -0.3308    0.0000 C   0  0  0  0  0  0  0  0  0  0  0  0
   -5.8310   -1.4158    0.0000 C   0  0  0  0  0  0  0  0  0  0  0  0
   -4.3734   -1.0613    0.0000 C   0  0  0  0  0  0  0  0  0  0  0  0
   -1.9242    2.1202    0.0000 C   0  0  0  0  0  0  0  0  0  0  0  0
   -0.4285    2.0069    0.0000 C   0  0  0  0  0  0  0  0  0  0  0  0
    1.5137   -1.5071    0.0000 C   0  0  0  0  0  0  0  0  0  0  0  0
    0.3263   -2.4237    0.0000 C   0  0  0  0  0  0  0  0  0  0  0  0
    0.5265   -3.9103    0.0000 C   0  0  0  0  0  0  0  0  0  0  0  0
    1.9140   -4.4803    0.0000 C   0  0  0  0  0  0  0  0  0  0  0  0
    3.1014   -3.5636    0.0000 C   0  0  0  0  0  0  0  0  0  0  0  0
    2.9012   -2.0770    0.0000 C   0  0  0  0  0  0  0  0  0  0  0  0
    4.0885   -1.1604    0.0000 C   0  0  0  0  0  0  0  0  0  0  0  0
  1  2  1  0
  2  3  2  0
  3  4  1  0
  4  5  2  0
  5  6  1  0
  6  7  2  0
  7  8  1  0
  1  9  1  0
  9 10  2  0
 10 11  1  0
 11 12  1  0
 12 13  2  0
 13 14  1  0
 14 15  2  0
 15 16  1  0
 16 17  2  0
 11 18  1  0
 18 19  2  0
  1 20  1  0
 20 21  2  0
 21 22  1  0
 22 23  2  0
 23 24  1  0
 24 25  2  0
 25 26  1  0
  7  2  1  0
 19  9  1  0
 25 20  1  0
 17 12  1  0
M  END
$$$$
Molecule_55
     RDKit          2D

 29 32  0  0  0  0  0  0  0  0999 V2000
    4.4150   -3.1696    0.0000 C   0  0  0  0  0  0  0  0  0  0  0  0
    2.9800   -2.7329    0.0000 O   0  0  0  0  0  0  0  0  0  0  0  0
    2.6407   -1.2718    0.0000 C   0  0  0  0  0  0  0  0  0  0  0  0
    1.2057   -0.8351    0.0000 C   0  0  0  0  0  0  0  0  0  0  0  0
    0.1100   -1.8595    0.0000 C   0  0  0  0  0  0  0  0  0  0  0  0
   -1.3251   -1.4228    0.0000 C   0  0  0  0  0  0  0  0  0  0  0  0
   -1.6644    0.0383    0.0000 P   0  0  0  0  0  0  0  0  0  0  0  0
   -3.0994    0.4750    0.0000 C   0  0  0  0  0  0  0  0  0  0  0  0
   -3.4388    1.9361    0.0000 C   0  0  0  0  0  0  0  0  0  0  0  0
   -4.8738    2.3728    0.0000 C   0  0  0  0  0  0  0  0  0  0  0  0
   -5.9695    1.3483    0.0000 C   0  0  0  0  0  0  0  0  0  0  0  0
   -5.6302   -0.1128    0.0000 C   0  0  0  0  0  0  0  0  0  0  0  0
   -4.1951   -0.5495    0.0000 C   0  0  0  0  0  0  0  0  0  0  0  0
   -0.5687    1.0627    0.0000 C   0  0  0  0  0  0  0  0  0  0  0  0
    0.8663    0.6260    0.0000 C   0  0  0  0  0  0  0  0  0  0  0  0
    1.9620    1.6504    0.0000 C   0  0  0  0  0  0  0  0  0  0  0  0
    1.6227    3.1115    0.0000 C   0  0  0  0  0  0  0  0  0  0  0  0
    0.1877    3.5482    0.0000 C   0  0  0  0  0  0  0  0  0  0  0  0
   -0.9080    2.5238    0.0000 C   0  0  0  0  0  0  0  0  0  0  0  0
   -2.4208   -2.4473    0.0000 C   0  0  0  0  0  0  0  0  0  0  0  0
   -2.0814   -3.9084    0.0000 C   0  0  0  0  0  0  0  0  0  0  0  0
   -0.6464   -4.3451    0.0000 C   0  0  0  0  0  0  0  0  0  0  0  0
    0.4493   -3.3207    0.0000 C   0  0  0  0  0  0  0  0  0  0  0  0
    0.8663    0.6260    0.0000 C   0  0  0  0  0  0  0  0  0  0  0  0
    1.9620    1.6504    0.0000 C   0  0  0  0  0  0  0  0  0  0  0  0
    3.3970    1.2137    0.0000 C   0  0  0  0  0  0  0  0  0  0  0  0
    4.4927    2.2382    0.0000 O   0  0  0  0  0  0  0  0  0  0  0  0
    5.9278    1.8015    0.0000 C   0  0  0  0  0  0  0  0  0  0  0  0
    3.7364   -0.2474    0.0000 C   0  0  0  0  0  0  0  0  0  0  0  0
  1  2  1  0
  2  3  1  0
  3  4  2  0
  4  5  1  0
  5  6  1  0
  6  7  1  0
  7  8  1  0
  8  9  1  0
  9 10  1  0
 10 11  1  0
 11 12  1  0
 12 13  1  0
  7 14  1  0
 14 15  1  0
 15 16  1  0
 16 17  1  0
 17 18  1  0
 18 19  1  0
  6 20  2  0
 20 21  1  0
 21 22  2  0
 22 23  1  0
  4 24  1  0
 24 25  2  0
 25 26  1  0
 26 27  1  0
 27 28  1  0
 26 29  2  0
 29  3  1  0
 23  5  2  0
 13  8  1  0
 19 14  1  0
M  END
$$$$
Molecule_56
     RDKit          2D

 27 31  0  0  0  0  0  0  0  0999 V2000
    0.0000   -0.8889    0.0000 P   0  0  0  0  0  0  0  0  0  0  0  0
   -1.2990   -1.6389    0.0000 C   0  0  0  0  0  0  0  0  0  0  0  0
   -2.5981   -0.8889    0.0000 C   0  0  0  0  0  0  0  0  0  0  0  0
   -3.8971   -1.6389    0.0000 C   0  0  0  0  0  0  0  0  0  0  0  0
   -3.8971   -3.1389    0.0000 C   0  0  0  0  0  0  0  0  0  0  0  0
   -2.5981   -3.8889    0.0000 C   0  0  0  0  0  0  0  0  0  0  0  0
   -1.2990   -3.1389    0.0000 C   0  0  0  0  0  0  0  0  0  0  0  0
   -0.0000    0.6111    0.0000 C   0  0  0  0  0  0  0  0  0  0  0  0
    1.2990    1.3611    0.0000 C   0  0  0  0  0  0  0  0  0  0  0  0
    2.5981    0.6111    0.0000 C   0  0  0  0  0  0  0  0  0  0  0  0
    3.8971    1.3611    0.0000 C   0  0  0  0  0  0  0  0  0  0  0  0
    3.8971    2.8611    0.0000 C   0  0  0  0  0  0  0  0  0  0  0  0
    2.5981    3.6111    0.0000 C   0  0  0  0  0  0  0  0  0  0  0  0
    1.2990    2.8611    0.0000 C   0  0  0  0  0  0  0  0  0  0  0  0
   -0.0000    3.6111    0.0000 C   0  0  0  0  0  0  0  0  0  0  0  0
   -1.2990    2.8611    0.0000 C   0  0  0  0  0  0  0  0  0  0  0  0
   -2.5981    3.6111    0.0000 C   0  0  0  0  0  0  0  0  0  0  0  0
   -3.8971    2.8611    0.0000 C   0  0  0  0  0  0  0  0  0  0  0  0
   -3.8971    1.3611    0.0000 C   0  0  0  0  0  0  0  0  0  0  0  0
   -2.5981    0.6111    0.0000 C   0  0  0  0  0  0  0  0  0  0  0  0
   -1.2990    1.3611    0.0000 C   0  0  0  0  0  0  0  0  0  0  0  0
    1.2990   -1.6389    0.0000 C   0  0  0  0  0  0  0  0  0  0  0  0
    1.2990   -3.1389    0.0000 C   0  0  0  0  0  0  0  0  0  0  0  0
    2.5981   -3.8889    0.0000 C   0  0  0  0  0  0  0  0  0  0  0  0
    3.8971   -3.1389    0.0000 C   0  0  0  0  0  0  0  0  0  0  0  0
    3.8971   -1.6389    0.0000 C   0  0  0  0  0  0  0  0  0  0  0  0
    2.5981   -0.8889    0.0000 C   0  0  0  0  0  0  0  0  0  0  0  0
  1  2  1  0
  2  3  2  0
  3  4  1  0
  4  5  2  0
  5  6  1  0
  6  7  2  0
  1  8  1  0
  8  9  1  0
  9 10  2  0
 10 11  1  0
 11 12  2  0
 12 13  1  0
 13 14  2  0
 14 15  1  0
 15 16  2  0
 16 17  1  0
 17 18  2  0
 18 19  1  0
 19 20  2  0
 20 21  1  0
  1 22  1  0
 22 23  2  0
 23 24  1  0
 24 25  2  0
 25 26  1  0
 26 27  2  0
  7  2  1  0
 21  8  2  0
 27 22  1  0
 14  9  1  0
 21 16  1  0
M  END
$$$$
Molecule_57
     RDKit          2D

 35 39  0  0  0  0  0  0  0  0999 V2000
   -0.2728    0.1172    0.0000 P   0  0  0  0  0  0  0  0  0  0  0  0
   -1.7624   -0.0594    0.0000 C   0  0  0  0  0  0  0  0  0  0  0  0
   -2.6601    1.1424    0.0000 C   0  0  0  0  0  0  0  0  0  0  0  0
   -4.1496    0.9659    0.0000 C   0  0  0  0  0  0  0  0  0  0  0  0
   -4.7416   -0.4124    0.0000 C   0  0  0  0  0  0  0  0  0  0  0  0
   -3.8439   -1.6142    0.0000 C   0  0  0  0  0  0  0  0  0  0  0  0
   -4.4358   -2.9924    0.0000 O   0  0  0  0  0  0  0  0  0  0  0  0
   -5.9254   -3.1690    0.0000 C   0  0  0  0  0  0  0  0  0  0  0  0
   -6.5173   -4.5472    0.0000 C   0  0  0  0  0  0  0  0  0  0  0  0
   -6.8230   -1.9672    0.0000 C   0  0  0  0  0  0  0  0  0  0  0  0
   -2.3543   -1.4376    0.0000 C   0  0  0  0  0  0  0  0  0  0  0  0
    0.3191    1.4954    0.0000 C   0  0  0  0  0  0  0  0  0  0  0  0
    1.8087    1.6720    0.0000 C   0  0  0  0  0  0  0  0  0  0  0  0
    2.7063    0.4702    0.0000 C   0  0  0  0  0  0  0  0  0  0  0  0
    4.1959    0.6468    0.0000 C   0  0  0  0  0  0  0  0  0  0  0  0
    4.7878    2.0250    0.0000 C   0  0  0  0  0  0  0  0  0  0  0  0
    3.8901    3.2268    0.0000 C   0  0  0  0  0  0  0  0  0  0  0  0
    2.4006    3.0502    0.0000 C   0  0  0  0  0  0  0  0  0  0  0  0
    1.5029    4.2520    0.0000 C   0  0  0  0  0  0  0  0  0  0  0  0
    0.0133    4.0755    0.0000 C   0  0  0  0  0  0  0  0  0  0  0  0
   -0.8843    5.2772    0.0000 C   0  0  0  0  0  0  0  0  0  0  0  0
   -2.3739    5.1007    0.0000 C   0  0  0  0  0  0  0  0  0  0  0  0
   -2.9658    3.7224    0.0000 C   0  0  0  0  0  0  0  0  0  0  0  0
   -2.0682    2.5207    0.0000 C   0  0  0  0  0  0  0  0  0  0  0  0
   -0.5786    2.6972    0.0000 C   0  0  0  0  0  0  0  0  0  0  0  0
    0.6248   -1.0846    0.0000 C   0  0  0  0  0  0  0  0  0  0  0  0
    0.0329   -2.4629    0.0000 C   0  0  0  0  0  0  0  0  0  0  0  0
    0.9306   -3.6646    0.0000 C   0  0  0  0  0  0  0  0  0  0  0  0
    2.4202   -3.4881    0.0000 C   0  0  0  0  0  0  0  0  0  0  0  0
    3.0121   -2.1098    0.0000 C   0  0  0  0  0  0  0  0  0  0  0  0
    4.5017   -1.9333    0.0000 O   0  0  0  0  0  0  0  0  0  0  0  0
    5.3993   -3.1350    0.0000 C   0  0  0  0  0  0  0  0  0  0  0  0
    6.8889   -2.9585    0.0000 C   0  0  0  0  0  0  0  0  0  0  0  0
    4.8074   -4.5133    0.0000 C   0  0  0  0  0  0  0  0  0  0  0  0
    2.1144   -0.9080    0.0000 C   0  0  0  0  0  0  0  0  0  0  0  0
  1  2  1  0
  2  3  2  0
  3  4  1  0
  4  5  2  0
  5  6  1  0
  6  7  1  0
  7  8  1  0
  8  9  1  0
  8 10  1  0
  6 11  2  0
  1 12  1  0
 12 13  1  0
 13 14  2  0
 14 15  1  0
 15 16  2  0
 16 17  1  0
 17 18  2  0
 18 19  1  0
 19 20  2  0
 20 21  1  0
 21 22  2  0
 22 23  1  0
 23 24  2  0
 24 25  1  0
  1 26  1  0
 26 27  2  0
 27 28  1  0
 28 29  2  0
 29 30  1  0
 30 31  1  0
 31 32  1  0
 32 33  1  0
 32 34  1  0
 30 35  2  0
 11  2  1  0
 25 12  2  0
 35 26  1  0
 18 13  1  0
 25 20  1  0
M  END
$$$$
Molecule_58
     RDKit          2D

 38 44  0  0  0  0  0  0  0  0999 V2000
   -1.0039    0.3167    0.0000 P   0  0  0  0  0  0  0  0  0  0  0  0
   -0.9285   -1.1814    0.0000 C   0  0  0  0  0  0  0  0  0  0  0  0
    0.3278   -2.0010    0.0000 N   0  0  0  0  0  0  0  0  0  0  0  0
   -0.0635   -3.4491    0.0000 N   0  0  0  0  0  0  0  0  0  0  0  0
    0.8781   -4.6168    0.0000 C   0  0  0  0  0  0  0  0  0  0  0  0
    0.3376   -6.0160    0.0000 C   0  0  0  0  0  0  0  0  0  0  0  0
    1.2792   -7.1837    0.0000 C   0  0  0  0  0  0  0  0  0  0  0  0
    2.7612   -6.9521    0.0000 C   0  0  0  0  0  0  0  0  0  0  0  0
    3.3016   -5.5529    0.0000 C   0  0  0  0  0  0  0  0  0  0  0  0
    2.3601   -4.3852    0.0000 C   0  0  0  0  0  0  0  0  0  0  0  0
   -1.5616   -3.5245    0.0000 C   0  0  0  0  0  0  0  0  0  0  0  0
   -2.0962   -2.1230    0.0000 C   0  0  0  0  0  0  0  0  0  0  0  0
    0.2558    1.1310    0.0000 C   0  0  0  0  0  0  0  0  0  0  0  0
    1.5909    0.4472    0.0000 C   0  0  0  0  0  0  0  0  0  0  0  0
    2.8506    1.2616    0.0000 C   0  0  0  0  0  0  0  0  0  0  0  0
    2.7752    2.7597    0.0000 C   0  0  0  0  0  0  0  0  0  0  0  0
    4.0349    3.5740    0.0000 C   0  0  0  0  0  0  0  0  0  0  0  0
    5.0556    2.4749    0.0000 C   0  0  0  0  0  0  0  0  0  0  0  0
    4.6141    1.0413    0.0000 C   0  0  0  0  0  0  0  0  0  0  0  0
    5.6348   -0.0578    0.0000 C   0  0  0  0  0  0  0  0  0  0  0  0
    7.0970    0.2765    0.0000 C   0  0  0  0  0  0  0  0  0  0  0  0
    7.5386    1.7101    0.0000 C   0  0  0  0  0  0  0  0  0  0  0  0
    6.5179    2.8092    0.0000 C   0  0  0  0  0  0  0  0  0  0  0  0
    4.9401    4.7701    0.0000 C   0  0  0  0  0  0  0  0  0  0  0  0
    3.4517    4.9560    0.0000 C   0  0  0  0  0  0  0  0  0  0  0  0
    1.4401    3.4435    0.0000 C   0  0  0  0  0  0  0  0  0  0  0  0
    0.1804    2.6291    0.0000 C   0  0  0  0  0  0  0  0  0  0  0  0
   -2.3390    1.0005    0.0000 C   0  0  0  0  0  0  0  0  0  0  0  0
   -3.6769    0.3223    0.0000 N   0  0  0  0  0  0  0  0  0  0  0  0
   -4.7354    1.3851    0.0000 N   0  0  0  0  0  0  0  0  0  0  0  0
   -6.2174    1.1536    0.0000 C   0  0  0  0  0  0  0  0  0  0  0  0
   -7.1589    2.3212    0.0000 C   0  0  0  0  0  0  0  0  0  0  0  0
   -8.6409    2.0897    0.0000 C   0  0  0  0  0  0  0  0  0  0  0  0
   -9.1814    0.6904    0.0000 C   0  0  0  0  0  0  0  0  0  0  0  0
   -8.2399   -0.4772    0.0000 C   0  0  0  0  0  0  0  0  0  0  0  0
   -6.7578   -0.2457    0.0000 C   0  0  0  0  0  0  0  0  0  0  0  0
   -4.0516    2.7202    0.0000 C   0  0  0  0  0  0  0  0  0  0  0  0
   -2.5705    2.4825    0.0000 C   0  0  0  0  0  0  0  0  0  0  0  0
  1  2  1  0
  2  3  2  0
  3  4  1  0
  4  5  1  0
  5  6  2  0
  6  7  1  0
  7  8  2  0
  8  9  1  0
  9 10  2  0
  4 11  1  0
 11 12  2  0
  1 13  1  0
 13 14  2  0
 14 15  1  0
 15 16  2  0
 16 17  1  0
 17 18  1  0
 18 19  2  0
 19 20  1  0
 20 21  2  0
 21 22  1  0
 22 23  2  0
 17 24  1  0
 24 25  1  0
 16 26  1  0
 26 27  2  0
  1 28  1  0
 28 29  2  0
 29 30  1  0
 30 31  1  0
 31 32  2  0
 32 33  1  0
 33 34  2  0
 34 35  1  0
 35 36  2  0
 30 37  1  0
 37 38  2  0
 12  2  1  0
 27 13  1  0
 38 28  1  0
 10  5  1  0
 25 17  1  0
 36 31  1  0
 23 18  1  0
M  END
$$$$
Molecule_59
     RDKit          2D

 44 50  0  0  0  0  0  0  0  0999 V2000
   -0.3244    0.7936    0.0000 P   0  0  0  0  0  0  0  0  0  0  0  0
   -1.2427   -0.3924    0.0000 C   0  0  0  0  0  0  0  0  0  0  0  0
   -0.8230   -1.8325    0.0000 C   0  0  0  0  0  0  0  0  0  0  0  0
    0.5887   -2.3394    0.0000 C   0  0  0  0  0  0  0  0  0  0  0  0
    0.8556   -3.8154    0.0000 C   0  0  0  0  0  0  0  0  0  0  0  0
    2.2674   -4.3223    0.0000 C   0  0  0  0  0  0  0  0  0  0  0  0
    3.4123   -3.3532    0.0000 C   0  0  0  0  0  0  0  0  0  0  0  0
    3.1454   -1.8771    0.0000 C   0  0  0  0  0  0  0  0  0  0  0  0
    1.7336   -1.3702    0.0000 C   0  0  0  0  0  0  0  0  0  0  0  0
   -2.0629   -2.6767    0.0000 N   0  0  0  0  0  0  0  0  0  0  0  0
   -3.2489   -1.7583    0.0000 N   0  0  0  0  0  0  0  0  0  0  0  0
   -4.6890   -2.1780    0.0000 C   0  0  0  0  0  0  0  0  0  0  0  0
   -5.7725   -1.1407    0.0000 C   0  0  0  0  0  0  0  0  0  0  0  0
   -7.2126   -1.5605    0.0000 C   0  0  0  0  0  0  0  0  0  0  0  0
   -7.5692   -3.0175    0.0000 C   0  0  0  0  0  0  0  0  0  0  0  0
   -6.4856   -4.0548    0.0000 C   0  0  0  0  0  0  0  0  0  0  0  0
   -5.0456   -3.6350    0.0000 C   0  0  0  0  0  0  0  0  0  0  0  0
   -2.7420   -0.3466    0.0000 C   0  0  0  0  0  0  0  0  0  0  0  0
   -0.8923    2.1820    0.0000 C   0  0  0  0  0  0  0  0  0  0  0  0
    0.0260    3.3680    0.0000 C   0  0  0  0  0  0  0  0  0  0  0  0
   -0.5419    4.7563    0.0000 C   0  0  0  0  0  0  0  0  0  0  0  0
   -2.0282    4.9586    0.0000 C   0  0  0  0  0  0  0  0  0  0  0  0
   -2.9466    3.7726    0.0000 C   0  0  0  0  0  0  0  0  0  0  0  0
   -2.3786    2.3843    0.0000 C   0  0  0  0  0  0  0  0  0  0  0  0
   -3.2970    1.1982    0.0000 N   0  0  0  0  0  0  0  0  0  0  0  0
   -3.1558    0.2243    0.0000 C   0  0  0  0  0  0  0  0  0  0  0  0
   -4.7833    1.4005    0.0000 C   0  0  0  0  0  0  0  0  0  0  0  0
    1.1619    0.5913    0.0000 C   0  0  0  0  0  0  0  0  0  0  0  0
    2.1992    1.6749    0.0000 C   0  0  0  0  0  0  0  0  0  0  0  0
    1.9323    3.1509    0.0000 C   0  0  0  0  0  0  0  0  0  0  0  0
    3.0772    4.1201    0.0000 C   0  0  0  0  0  0  0  0  0  0  0  0
    2.8103    5.5962    0.0000 C   0  0  0  0  0  0  0  0  0  0  0  0
    1.3985    6.1031    0.0000 C   0  0  0  0  0  0  0  0  0  0  0  0
    0.2537    5.1339    0.0000 C   0  0  0  0  0  0  0  0  0  0  0  0
    0.5205    3.6578    0.0000 C   0  0  0  0  0  0  0  0  0  0  0  0
    3.5502    1.0232    0.0000 N   0  0  0  0  0  0  0  0  0  0  0  0
    3.3479   -0.4631    0.0000 N   0  0  0  0  0  0  0  0  0  0  0  0
    4.4315   -1.5004    0.0000 C   0  0  0  0  0  0  0  0  0  0  0  0
    4.0749   -2.9574    0.0000 C   0  0  0  0  0  0  0  0  0  0  0  0
    5.1584   -3.9947    0.0000 C   0  0  0  0  0  0  0  0  0  0  0  0
    6.5985   -3.5750    0.0000 C   0  0  0  0  0  0  0  0  0  0  0  0
    6.9551   -2.1180    0.0000 C   0  0  0  0  0  0  0  0  0  0  0  0
    5.8715   -1.0807    0.0000 C   0  0  0  0  0  0  0  0  0  0  0  0
    1.8719   -0.7300    0.0000 C   0  0  0  0  0  0  0  0  0  0  0  0
  1  2  1  0
  2  3  1  0
  3  4  1  0
  4  5  2  0
  5  6  1  0
  6  7  2  0
  7  8  1  0
  8  9  2  0
  3 10  2  0
 10 11  1  0
 11 12  1  0
 12 13  2  0
 13 14  1  0
 14 15  2  0
 15 16  1  0
 16 17  2  0
 11 18  1  0
  1 19  1  0
 19 20  2  0
 20 21  1  0
 21 22  2  0
 22 23  1  0
 23 24  2  0
 24 25  1  0
 25 26  1  0
 25 27  1  0
  1 28  1  0
 28 29  1  0
 29 30  1  0
 30 31  2  0
 31 32  1  0
 32 33  2  0
 33 34  1  0
 34 35  2  0
 29 36  2  0
 36 37  1  0
 37 38  1  0
 38 39  2  0
 39 40  1  0
 40 41  2  0
 41 42  1  0
 42 43  2  0
 37 44  1  0
 18  2  2  0
 24 19  1  0
 44 28  2  0
  9  4  1  0
 17 12  1  0
 35 30  1  0
 43 38  1  0
M  END
$$$$
Molecule_60
     RDKit          2D

 41 43  0  0  0  0  0  0  0  0999 V2000
    0.1313   -0.0226    0.0000 P   0  0  0  0  0  0  0  0  0  0  0  0
    1.0533   -1.2059    0.0000 C   0  0  0  0  0  0  0  0  0  0  0  0
    0.4896   -2.5959    0.0000 C   0  0  0  0  0  0  0  0  0  0  0  0
   -0.9961   -2.8027    0.0000 O   0  0  0  0  0  0  0  0  0  0  0  0
   -1.9181   -1.6195    0.0000 C   0  0  0  0  0  0  0  0  0  0  0  0
   -3.3095   -2.1797    0.0000 C   0  0  0  0  0  0  0  0  0  0  0  0
   -1.7074   -0.1344    0.0000 C   0  0  0  0  0  0  0  0  0  0  0  0
    1.4115   -3.7791    0.0000 C   0  0  0  0  0  0  0  0  0  0  0  0
    2.8972   -3.5723    0.0000 C   0  0  0  0  0  0  0  0  0  0  0  0
    3.4609   -2.1823    0.0000 C   0  0  0  0  0  0  0  0  0  0  0  0
    2.5390   -0.9990    0.0000 C   0  0  0  0  0  0  0  0  0  0  0  0
    3.1027    0.3910    0.0000 O   0  0  0  0  0  0  0  0  0  0  0  0
    4.5884    0.5978    0.0000 C   0  0  0  0  0  0  0  0  0  0  0  0
    5.1521    1.9879    0.0000 C   0  0  0  0  0  0  0  0  0  0  0  0
    5.5103   -0.5854    0.0000 C   0  0  0  0  0  0  0  0  0  0  0  0
    0.6951    1.3674    0.0000 C   0  0  0  0  0  0  0  0  0  0  0  0
    2.1807    1.5742    0.0000 C   0  0  0  0  0  0  0  0  0  0  0  0
    3.1027    0.3910    0.0000 N   0  0  0  0  0  0  0  0  0  0  0  0
    4.4942    0.9512    0.0000 C   0  0  0  0  0  0  0  0  0  0  0  0
    2.8921   -1.0941    0.0000 C   0  0  0  0  0  0  0  0  0  0  0  0
    2.7445    2.9643    0.0000 C   0  0  0  0  0  0  0  0  0  0  0  0
    1.8225    4.1475    0.0000 C   0  0  0  0  0  0  0  0  0  0  0  0
    0.3368    3.9407    0.0000 C   0  0  0  0  0  0  0  0  0  0  0  0
   -0.2269    2.5506    0.0000 C   0  0  0  0  0  0  0  0  0  0  0  0
   -1.7126    2.3438    0.0000 N   0  0  0  0  0  0  0  0  0  0  0  0
   -2.3208    3.7149    0.0000 C   0  0  0  0  0  0  0  0  0  0  0  0
   -2.5959    1.1315    0.0000 C   0  0  0  0  0  0  0  0  0  0  0  0
   -1.3543   -0.2295    0.0000 C   0  0  0  0  0  0  0  0  0  0  0  0
   -2.2763    0.9537    0.0000 C   0  0  0  0  0  0  0  0  0  0  0  0
   -1.7126    2.3438    0.0000 O   0  0  0  0  0  0  0  0  0  0  0  0
   -2.6345    3.5270    0.0000 C   0  0  0  0  0  0  0  0  0  0  0  0
   -2.0708    4.9171    0.0000 C   0  0  0  0  0  0  0  0  0  0  0  0
   -4.1202    3.3202    0.0000 C   0  0  0  0  0  0  0  0  0  0  0  0
   -3.7620    0.7469    0.0000 C   0  0  0  0  0  0  0  0  0  0  0  0
   -4.3257   -0.6431    0.0000 C   0  0  0  0  0  0  0  0  0  0  0  0
   -3.4037   -1.8263    0.0000 C   0  0  0  0  0  0  0  0  0  0  0  0
   -1.9181   -1.6195    0.0000 C   0  0  0  0  0  0  0  0  0  0  0  0
   -0.9961   -2.8027    0.0000 O   0  0  0  0  0  0  0  0  0  0  0  0
   -1.5598   -4.1928    0.0000 C   0  0  0  0  0  0  0  0  0  0  0  0
   -0.6379   -5.3760    0.0000 C   0  0  0  0  0  0  0  0  0  0  0  0
   -3.0455   -4.3996    0.0000 C   0  0  0  0  0  0  0  0  0  0  0  0
  1  2  1  0
  2  3  2  0
  3  4  1  0
  4  5  1  0
  5  6  1  0
  5  7  1  0
  3  8  1  0
  8  9  2  0
  9 10  1  0
 10 11  2  0
 11 12  1  0
 12 13  1  0
 13 14  1  0
 13 15  1  0
  1 16  1  0
 16 17  2  0
 17 18  1  0
 18 19  1  0
 18 20  1  0
 17 21  1  0
 21 22  2  0
 22 23  1  0
 23 24  2  0
 24 25  1  0
 25 26  1  0
 25 27  1  0
  1 28  1  0
 28 29  2  0
 29 30  1  0
 30 31  1  0
 31 32  1  0
 31 33  1  0
 29 34  1  0
 34 35  2  0
 35 36  1  0
 36 37  2  0
 37 38  1  0
 38 39  1  0
 39 40  1  0
 39 41  1  0
 11  2  1  0
 24 16  1  0
 37 28  1  0
M  END
$$$$
Molecule_61
     RDKit          2D

 25 28  0  0  0  0  0  0  0  0999 V2000
    0.9525   -0.0000    0.0000 P   0  0  0  0  0  0  0  0  0  0  0  0
    2.3698    0.4910    0.0000 C   0  0  0  0  0  0  0  0  0  0  0  0
    3.5037   -0.4910    0.0000 C   0  0  0  0  0  0  0  0  0  0  0  0
    4.9211   -0.0000    0.0000 C   0  0  0  0  0  0  0  0  0  0  0  0
    5.2046    1.4730    0.0000 C   0  0  0  0  0  0  0  0  0  0  0  0
    4.0707    2.4550    0.0000 C   0  0  0  0  0  0  0  0  0  0  0  0
    2.6533    1.9640    0.0000 C   0  0  0  0  0  0  0  0  0  0  0  0
    0.6690   -1.4730    0.0000 C   0  0  0  0  0  0  0  0  0  0  0  0
    1.8029   -2.4550    0.0000 C   0  0  0  0  0  0  0  0  0  0  0  0
    1.5194   -3.9279    0.0000 C   0  0  0  0  0  0  0  0  0  0  0  0
    0.1021   -4.4189    0.0000 C   0  0  0  0  0  0  0  0  0  0  0  0
   -1.0318   -3.4369    0.0000 C   0  0  0  0  0  0  0  0  0  0  0  0
   -0.7484   -1.9640    0.0000 C   0  0  0  0  0  0  0  0  0  0  0  0
   -1.8823   -0.9820    0.0000 N   0  0  0  0  0  0  0  0  0  0  0  0
   -3.2996   -1.4730    0.0000 C   0  0  0  0  0  0  0  0  0  0  0  0
   -4.4335   -0.4910    0.0000 C   0  0  0  0  0  0  0  0  0  0  0  0
   -4.1500    0.9820    0.0000 C   0  0  0  0  0  0  0  0  0  0  0  0
   -2.7327    1.4730    0.0000 C   0  0  0  0  0  0  0  0  0  0  0  0
   -1.5988    0.4910    0.0000 C   0  0  0  0  0  0  0  0  0  0  0  0
   -0.1814    0.9820    0.0000 C   0  0  0  0  0  0  0  0  0  0  0  0
    0.1021    2.4550    0.0000 C   0  0  0  0  0  0  0  0  0  0  0  0
   -1.0318    3.4369    0.0000 C   0  0  0  0  0  0  0  0  0  0  0  0
   -2.4492    2.9459    0.0000 C   0  0  0  0  0  0  0  0  0  0  0  0
   -2.7327    1.4730    0.0000 C   0  0  0  0  0  0  0  0  0  0  0  0
   -1.5988    0.4910    0.0000 C   0  0  0  0  0  0  0  0  0  0  0  0
  1  2  1  0
  2  3  2  0
  3  4  1  0
  4  5  2  0
  5  6  1  0
  6  7  2  0
  1  8  1  0
  8  9  2  0
  9 10  1  0
 10 11  2  0
 11 12  1  0
 12 13  2  0
 13 14  1  0
 14 15  1  0
 15 16  1  0
 16 17  1  0
 17 18  1  0
 18 19  1  0
  1 20  1  0
 20 21  2  0
 21 22  1  0
 22 23  2  0
 23 24  1  0
 24 25  2  0
  7  2  1  0
 13  8  1  0
 19 14  1  0
 25 20  1  0
M  END
$$$$
Molecule_62
     RDKit          2D

 39 41  0  0  0  0  0  0  0  0999 V2000
   -0.1289    0.0563    0.0000 P   0  0  0  0  0  0  0  0  0  0  0  0
   -0.7196    1.4351    0.0000 C   0  0  0  0  0  0  0  0  0  0  0  0
    0.1790    2.6361    0.0000 C   0  0  0  0  0  0  0  0  0  0  0  0
    1.6685    2.4583    0.0000 O   0  0  0  0  0  0  0  0  0  0  0  0
    2.2592    1.0795    0.0000 C   0  0  0  0  0  0  0  0  0  0  0  0
    3.7474    1.2675    0.0000 C   0  0  0  0  0  0  0  0  0  0  0  0
    1.6779   -0.3032    0.0000 C   0  0  0  0  0  0  0  0  0  0  0  0
   -0.4117    4.0148    0.0000 C   0  0  0  0  0  0  0  0  0  0  0  0
   -1.9012    4.1926    0.0000 C   0  0  0  0  0  0  0  0  0  0  0  0
   -2.7998    2.9916    0.0000 C   0  0  0  0  0  0  0  0  0  0  0  0
   -2.2091    1.6128    0.0000 C   0  0  0  0  0  0  0  0  0  0  0  0
   -3.1077    0.4118    0.0000 O   0  0  0  0  0  0  0  0  0  0  0  0
   -4.5971    0.5896    0.0000 C   0  0  0  0  0  0  0  0  0  0  0  0
   -5.4958   -0.6114    0.0000 C   0  0  0  0  0  0  0  0  0  0  0  0
   -5.1879    1.9683    0.0000 C   0  0  0  0  0  0  0  0  0  0  0  0
   -1.0275   -1.1447    0.0000 C   0  0  0  0  0  0  0  0  0  0  0  0
   -2.5169   -0.9669    0.0000 C   0  0  0  0  0  0  0  0  0  0  0  0
   -3.1077    0.4118    0.0000 O   0  0  0  0  0  0  0  0  0  0  0  0
   -4.5959    0.2239    0.0000 C   0  0  0  0  0  0  0  0  0  0  0  0
   -3.4156   -2.1679    0.0000 C   0  0  0  0  0  0  0  0  0  0  0  0
   -2.8248   -3.5467    0.0000 C   0  0  0  0  0  0  0  0  0  0  0  0
   -1.3354   -3.7245    0.0000 C   0  0  0  0  0  0  0  0  0  0  0  0
   -0.4367   -2.5235    0.0000 C   0  0  0  0  0  0  0  0  0  0  0  0
    1.0527   -2.7012    0.0000 O   0  0  0  0  0  0  0  0  0  0  0  0
    1.2923   -4.1820    0.0000 C   0  0  0  0  0  0  0  0  0  0  0  0
    1.3606   -0.1215    0.0000 C   0  0  0  0  0  0  0  0  0  0  0  0
    1.9513   -1.5002    0.0000 C   0  0  0  0  0  0  0  0  0  0  0  0
    1.0527   -2.7012    0.0000 O   0  0  0  0  0  0  0  0  0  0  0  0
    1.6435   -4.0800    0.0000 C   0  0  0  0  0  0  0  0  0  0  0  0
    0.7448   -5.2810    0.0000 C   0  0  0  0  0  0  0  0  0  0  0  0
    3.1329   -4.2578    0.0000 C   0  0  0  0  0  0  0  0  0  0  0  0
    3.4408   -1.6780    0.0000 C   0  0  0  0  0  0  0  0  0  0  0  0
    4.3394   -0.4770    0.0000 C   0  0  0  0  0  0  0  0  0  0  0  0
    3.7487    0.9018    0.0000 C   0  0  0  0  0  0  0  0  0  0  0  0
    2.2592    1.0795    0.0000 C   0  0  0  0  0  0  0  0  0  0  0  0
    1.6685    2.4583    0.0000 O   0  0  0  0  0  0  0  0  0  0  0  0
    2.5671    3.6593    0.0000 C   0  0  0  0  0  0  0  0  0  0  0  0
    1.9764    5.0381    0.0000 C   0  0  0  0  0  0  0  0  0  0  0  0
    4.0566    3.4816    0.0000 C   0  0  0  0  0  0  0  0  0  0  0  0
  1  2  1  0
  2  3  2  0
  3  4  1  0
  4  5  1  0
  5  6  1  0
  5  7  1  0
  3  8  1  0
  8  9  2  0
  9 10  1  0
 10 11  2  0
 11 12  1  0
 12 13  1  0
 13 14  1  0
 13 15  1  0
  1 16  1  0
 16 17  2  0
 17 18  1  0
 18 19  1  0
 17 20  1  0
 20 21  2  0
 21 22  1  0
 22 23  2  0
 23 24  1  0
 24 25  1  0
  1 26  1  0
 26 27  2  0
 27 28  1  0
 28 29  1  0
 29 30  1  0
 29 31  1  0
 27 32  1  0
 32 33  2  0
 33 34  1  0
 34 35  2  0
 35 36  1  0
 36 37  1  0
 37 38  1  0
 37 39  1  0
 11  2  1  0
 23 16  1  0
 35 26  1  0
M  END
$$$$
Molecule_63
     RDKit          2D

 28 29  0  0  0  0  0  0  0  0999 V2000
   -0.8036   -0.0000    0.0000 P   0  0  0  0  0  0  0  0  0  0  0  0
   -0.0536    1.2990    0.0000 C   0  0  0  0  0  0  0  0  0  0  0  0
   -0.8036    2.5981    0.0000 C   0  0  0  0  0  0  0  0  0  0  0  0
   -2.3036    2.5981    0.0000 O   0  0  0  0  0  0  0  0  0  0  0  0
   -3.0536    3.8971    0.0000 C   0  0  0  0  0  0  0  0  0  0  0  0
   -4.5536    3.8971    0.0000 C   0  0  0  0  0  0  0  0  0  0  0  0
   -0.0536    3.8971    0.0000 C   0  0  0  0  0  0  0  0  0  0  0  0
    1.4464    3.8971    0.0000 C   0  0  0  0  0  0  0  0  0  0  0  0
    2.1964    2.5981    0.0000 C   0  0  0  0  0  0  0  0  0  0  0  0
    1.4464    1.2990    0.0000 C   0  0  0  0  0  0  0  0  0  0  0  0
    2.1964    0.0000    0.0000 O   0  0  0  0  0  0  0  0  0  0  0  0
    3.6964    0.0000    0.0000 C   0  0  0  0  0  0  0  0  0  0  0  0
    4.4464   -1.2990    0.0000 C   0  0  0  0  0  0  0  0  0  0  0  0
   -2.3036   -0.0000    0.0000 C   0  0  0  0  0  0  0  0  0  0  0  0
   -3.0536   -1.2990    0.0000 C   0  0  0  0  0  0  0  0  0  0  0  0
   -3.0536    1.2990    0.0000 C   0  0  0  0  0  0  0  0  0  0  0  0
   -0.0536   -1.2990    0.0000 C   0  0  0  0  0  0  0  0  0  0  0  0
    1.4464   -1.2990    0.0000 C   0  0  0  0  0  0  0  0  0  0  0  0
    2.1964    0.0000    0.0000 O   0  0  0  0  0  0  0  0  0  0  0  0
    3.6964    0.0000    0.0000 C   0  0  0  0  0  0  0  0  0  0  0  0
    4.4464    1.2990    0.0000 C   0  0  0  0  0  0  0  0  0  0  0  0
    2.1964   -2.5981    0.0000 C   0  0  0  0  0  0  0  0  0  0  0  0
    1.4464   -3.8971    0.0000 C   0  0  0  0  0  0  0  0  0  0  0  0
   -0.0536   -3.8971    0.0000 C   0  0  0  0  0  0  0  0  0  0  0  0
   -0.8036   -2.5981    0.0000 C   0  0  0  0  0  0  0  0  0  0  0  0
   -2.3036   -2.5981    0.0000 O   0  0  0  0  0  0  0  0  0  0  0  0
   -3.0536   -3.8971    0.0000 C   0  0  0  0  0  0  0  0  0  0  0  0
   -4.5536   -3.8971    0.0000 C   0  0  0  0  0  0  0  0  0  0  0  0
  1  2  1  0
  2  3  2  0
  3  4  1  0
  4  5  1  0
  5  6  1  0
  3  7  1  0
  7  8  2  0
  8  9  1  0
  9 10  2  0
 10 11  1  0
 11 12  1  0
 12 13  1  0
  1 14  1  0
 14 15  1  0
 14 16  1  0
  1 17  1  0
 17 18  2  0
 18 19  1  0
 19 20  1  0
 20 21  1  0
 18 22  1  0
 22 23  2  0
 23 24  1  0
 24 25  2  0
 25 26  1  0
 26 27  1  0
 27 28  1  0
 10  2  1  0
 25 17  1  0
M  END
$$$$
Molecule_64
     RDKit          2D

 22 24  0  0  0  0  0  0  0  0999 V2000
   -0.4685   -0.0087    0.0000 P   0  0  0  0  0  0  0  0  0  0  0  0
    0.3528    1.2465    0.0000 C   0  0  0  0  0  0  0  0  0  0  0  0
    1.8505    1.1628    0.0000 C   0  0  0  0  0  0  0  0  0  0  0  0
    2.6718    2.4179    0.0000 C   0  0  0  0  0  0  0  0  0  0  0  0
    1.9955    3.7568    0.0000 N   0  0  0  0  0  0  0  0  0  0  0  0
    0.4978    3.8405    0.0000 C   0  0  0  0  0  0  0  0  0  0  0  0
   -0.3235    2.5853    0.0000 C   0  0  0  0  0  0  0  0  0  0  0  0
    0.2078   -1.3476    0.0000 C   0  0  0  0  0  0  0  0  0  0  0  0
   -0.6135   -2.6027    0.0000 C   0  0  0  0  0  0  0  0  0  0  0  0
    0.0629   -3.9416    0.0000 C   0  0  0  0  0  0  0  0  0  0  0  0
    1.5605   -4.0253    0.0000 C   0  0  0  0  0  0  0  0  0  0  0  0
    2.3819   -2.7701    0.0000 C   0  0  0  0  0  0  0  0  0  0  0  0
    1.7055   -1.4313    0.0000 C   0  0  0  0  0  0  0  0  0  0  0  0
    2.5268   -0.1761    0.0000 N   0  0  0  0  0  0  0  0  0  0  0  0
    4.0245   -0.2598    0.0000 C   0  0  0  0  0  0  0  0  0  0  0  0
    2.3502    0.6013    0.0000 C   0  0  0  0  0  0  0  0  0  0  0  0
   -1.9662    0.0750    0.0000 C   0  0  0  0  0  0  0  0  0  0  0  0
   -2.6425    1.4139    0.0000 C   0  0  0  0  0  0  0  0  0  0  0  0
   -4.1402    1.4976    0.0000 C   0  0  0  0  0  0  0  0  0  0  0  0
   -4.9615    0.2424    0.0000 N   0  0  0  0  0  0  0  0  0  0  0  0
   -4.2851   -1.0965    0.0000 C   0  0  0  0  0  0  0  0  0  0  0  0
   -2.7875   -1.1802    0.0000 C   0  0  0  0  0  0  0  0  0  0  0  0
  1  2  1  0
  2  3  2  0
  3  4  1  0
  4  5  2  0
  5  6  1  0
  6  7  2  0
  1  8  1  0
  8  9  2  0
  9 10  1  0
 10 11  2  0
 11 12  1  0
 12 13  2  0
 13 14  1  0
 14 15  1  0
 14 16  1  0
  1 17  1  0
 17 18  2  0
 18 19  1  0
 19 20  2  0
 20 21  1  0
 21 22  2  0
  7  2  1  0
 13  8  1  0
 22 17  1  0
M  END
$$$$
Molecule_65
     RDKit          2D

 32 36  0  0  0  0  0  0  0  0999 V2000
    0.0085   -0.6562    0.0000 P   0  0  0  0  0  0  0  0  0  0  0  0
    0.9516   -1.8227    0.0000 C   0  0  0  0  0  0  0  0  0  0  0  0
    0.4129   -3.2226    0.0000 C   0  0  0  0  0  0  0  0  0  0  0  0
    1.3560   -4.3891    0.0000 C   0  0  0  0  0  0  0  0  0  0  0  0
    2.8377   -4.1556    0.0000 C   0  0  0  0  0  0  0  0  0  0  0  0
    3.3763   -2.7556    0.0000 C   0  0  0  0  0  0  0  0  0  0  0  0
    2.4333   -1.5892    0.0000 C   0  0  0  0  0  0  0  0  0  0  0  0
    2.9719   -0.1892    0.0000 N   0  0  0  0  0  0  0  0  0  0  0  0
    4.4536    0.0443    0.0000 C   0  0  0  0  0  0  0  0  0  0  0  0
    4.9923    1.4442    0.0000 C   0  0  0  0  0  0  0  0  0  0  0  0
    4.0492    2.6107    0.0000 C   0  0  0  0  0  0  0  0  0  0  0  0
    2.5675    2.3772    0.0000 C   0  0  0  0  0  0  0  0  0  0  0  0
    2.0289    0.9772    0.0000 C   0  0  0  0  0  0  0  0  0  0  0  0
   -1.4732   -0.8897    0.0000 C   0  0  0  0  0  0  0  0  0  0  0  0
   -2.4163    0.2768    0.0000 C   0  0  0  0  0  0  0  0  0  0  0  0
   -3.8980    0.0433    0.0000 C   0  0  0  0  0  0  0  0  0  0  0  0
   -4.4367   -1.3567    0.0000 C   0  0  0  0  0  0  0  0  0  0  0  0
   -3.4936   -2.5231    0.0000 C   0  0  0  0  0  0  0  0  0  0  0  0
   -2.0119   -2.2896    0.0000 C   0  0  0  0  0  0  0  0  0  0  0  0
   -1.0688   -3.4561    0.0000 C   0  0  0  0  0  0  0  0  0  0  0  0
    0.5471    0.7438    0.0000 C   0  0  0  0  0  0  0  0  0  0  0  0
    2.0289    0.9772    0.0000 C   0  0  0  0  0  0  0  0  0  0  0  0
    2.5675    2.3772    0.0000 C   0  0  0  0  0  0  0  0  0  0  0  0
    1.6245    3.5436    0.0000 C   0  0  0  0  0  0  0  0  0  0  0  0
    0.1427    3.3102    0.0000 C   0  0  0  0  0  0  0  0  0  0  0  0
   -0.3959    1.9102    0.0000 C   0  0  0  0  0  0  0  0  0  0  0  0
   -1.8776    1.6767    0.0000 N   0  0  0  0  0  0  0  0  0  0  0  0
   -2.8207    2.8432    0.0000 C   0  0  0  0  0  0  0  0  0  0  0  0
   -4.3024    2.6097    0.0000 C   0  0  0  0  0  0  0  0  0  0  0  0
   -4.8411    1.2098    0.0000 C   0  0  0  0  0  0  0  0  0  0  0  0
   -3.8980    0.0433    0.0000 C   0  0  0  0  0  0  0  0  0  0  0  0
   -2.4163    0.2768    0.0000 C   0  0  0  0  0  0  0  0  0  0  0  0
  1  2  1  0
  2  3  2  0
  3  4  1  0
  4  5  2  0
  5  6  1  0
  6  7  2  0
  7  8  1  0
  8  9  1  0
  9 10  1  0
 10 11  1  0
 11 12  1  0
 12 13  1  0
  1 14  1  0
 14 15  2  0
 15 16  1  0
 16 17  2  0
 17 18  1  0
 18 19  2  0
 19 20  1  0
  1 21  1  0
 21 22  2  0
 22 23  1  0
 23 24  2  0
 24 25  1  0
 25 26  2  0
 26 27  1  0
 27 28  1  0
 28 29  1  0
 29 30  1  0
 30 31  1  0
 31 32  1  0
  7  2  1  0
 13  8  1  0
 19 14  1  0
 26 21  1  0
 32 27  1  0
M  END
$$$$
Molecule_66
     RDKit          2D

 46 53  0  0  0  0  0  0  0  0999 V2000
   -0.0000    0.8769    0.0000 P   0  0  0  0  0  0  0  0  0  0  0  0
    1.4852    0.6669    0.0000 C   0  0  0  0  0  0  0  0  0  0  0  0
    2.5281    1.7451    0.0000 N   0  0  0  0  0  0  0  0  0  0  0  0
    3.8758    1.0864    0.0000 N   0  0  0  0  0  0  0  0  0  0  0  0
    5.2007    1.7896    0.0000 C   0  0  0  0  0  0  0  0  0  0  0  0
    6.4722    0.9937    0.0000 C   0  0  0  0  0  0  0  0  0  0  0  0
    7.7972    1.6968    0.0000 C   0  0  0  0  0  0  0  0  0  0  0  0
    7.8507    3.1958    0.0000 C   0  0  0  0  0  0  0  0  0  0  0  0
    6.5793    3.9918    0.0000 C   0  0  0  0  0  0  0  0  0  0  0  0
    5.2543    3.2886    0.0000 C   0  0  0  0  0  0  0  0  0  0  0  0
    3.6658   -0.3988    0.0000 C   0  0  0  0  0  0  0  0  0  0  0  0
    4.7440   -1.4417    0.0000 C   0  0  0  0  0  0  0  0  0  0  0  0
    4.3799   -2.8968    0.0000 C   0  0  0  0  0  0  0  0  0  0  0  0
    5.4581   -3.9397    0.0000 C   0  0  0  0  0  0  0  0  0  0  0  0
    6.9003   -3.5274    0.0000 C   0  0  0  0  0  0  0  0  0  0  0  0
    7.2643   -2.0722    0.0000 C   0  0  0  0  0  0  0  0  0  0  0  0
    6.1862   -1.0294    0.0000 C   0  0  0  0  0  0  0  0  0  0  0  0
    2.1884   -0.6581    0.0000 C   0  0  0  0  0  0  0  0  0  0  0  0
   -0.5608    2.2681    0.0000 C   0  0  0  0  0  0  0  0  0  0  0  0
   -2.0159    2.6322    0.0000 N   0  0  0  0  0  0  0  0  0  0  0  0
   -2.1194    4.1286    0.0000 N   0  0  0  0  0  0  0  0  0  0  0  0
   -3.3908    4.9245    0.0000 C   0  0  0  0  0  0  0  0  0  0  0  0
   -3.3372    6.4236    0.0000 C   0  0  0  0  0  0  0  0  0  0  0  0
   -4.6086    7.2195    0.0000 C   0  0  0  0  0  0  0  0  0  0  0  0
   -5.9336    6.5163    0.0000 C   0  0  0  0  0  0  0  0  0  0  0  0
   -5.9872    5.0173    0.0000 C   0  0  0  0  0  0  0  0  0  0  0  0
   -4.7158    4.2214    0.0000 C   0  0  0  0  0  0  0  0  0  0  0  0
   -0.7281    4.6894    0.0000 C   0  0  0  0  0  0  0  0  0  0  0  0
    0.2351    3.5395    0.0000 C   0  0  0  0  0  0  0  0  0  0  0  0
   -0.9244   -0.3044    0.0000 C   0  0  0  0  0  0  0  0  0  0  0  0
   -0.5122   -1.7466    0.0000 N   0  0  0  0  0  0  0  0  0  0  0  0
   -1.7564   -2.5844    0.0000 N   0  0  0  0  0  0  0  0  0  0  0  0
   -1.8100   -4.0834    0.0000 C   0  0  0  0  0  0  0  0  0  0  0  0
   -3.1350   -4.7866    0.0000 C   0  0  0  0  0  0  0  0  0  0  0  0
   -3.1885   -6.2856    0.0000 C   0  0  0  0  0  0  0  0  0  0  0  0
   -1.9171   -7.0815    0.0000 C   0  0  0  0  0  0  0  0  0  0  0  0
   -0.5921   -6.3784    0.0000 C   0  0  0  0  0  0  0  0  0  0  0  0
   -0.5385   -4.8793    0.0000 C   0  0  0  0  0  0  0  0  0  0  0  0
   -2.9377   -1.6599    0.0000 C   0  0  0  0  0  0  0  0  0  0  0  0
   -4.3799   -2.0722    0.0000 C   0  0  0  0  0  0  0  0  0  0  0  0
   -5.4581   -1.0294    0.0000 C   0  0  0  0  0  0  0  0  0  0  0  0
   -6.9003   -1.4417    0.0000 C   0  0  0  0  0  0  0  0  0  0  0  0
   -7.2643   -2.8968    0.0000 C   0  0  0  0  0  0  0  0  0  0  0  0
   -6.1862   -3.9397    0.0000 C   0  0  0  0  0  0  0  0  0  0  0  0
   -4.7440   -3.5274    0.0000 C   0  0  0  0  0  0  0  0  0  0  0  0
   -2.4235   -0.2508    0.0000 C   0  0  0  0  0  0  0  0  0  0  0  0
  1  2  1  0
  2  3  2  0
  3  4  1  0
  4  5  1  0
  5  6  2  0
  6  7  1  0
  7  8  2  0
  8  9  1  0
  9 10  2  0
  4 11  1  0
 11 12  1  0
 12 13  2  0
 13 14  1  0
 14 15  2  0
 15 16  1  0
 16 17  2  0
 11 18  2  0
  1 19  1  0
 19 20  2  0
 20 21  1  0
 21 22  1  0
 22 23  2  0
 23 24  1  0
 24 25  2  0
 25 26  1  0
 26 27  2  0
 21 28  1  0
 28 29  2  0
  1 30  1  0
 30 31  2  0
 31 32  1  0
 32 33  1  0
 33 34  2  0
 34 35  1  0
 35 36  2  0
 36 37  1  0
 37 38  2  0
 32 39  1  0
 39 40  1  0
 40 41  2  0
 41 42  1  0
 42 43  2  0
 43 44  1  0
 44 45  2  0
 39 46  2  0
 18  2  1  0
 29 19  1  0
 46 30  1  0
 10  5  1  0
 17 12  1  0
 27 22  1  0
 38 33  1  0
 45 40  1  0
M  END
$$$$
Molecule_67
     RDKit          2D

 32 36  0  0  0  0  0  0  0  0999 V2000
    0.1154    0.9166    0.0000 P   0  0  0  0  0  0  0  0  0  0  0  0
    1.1115   -0.2049    0.0000 C   0  0  0  0  0  0  0  0  0  0  0  0
    2.6043   -0.0582    0.0000 N   0  0  0  0  0  0  0  0  0  0  0  0
    3.2051   -1.4327    0.0000 N   0  0  0  0  0  0  0  0  0  0  0  0
    4.6702   -1.7544    0.0000 C   0  0  0  0  0  0  0  0  0  0  0  0
    5.1241   -3.1841    0.0000 C   0  0  0  0  0  0  0  0  0  0  0  0
    6.5891   -3.5059    0.0000 C   0  0  0  0  0  0  0  0  0  0  0  0
    7.6004   -2.3980    0.0000 C   0  0  0  0  0  0  0  0  0  0  0  0
    7.1465   -0.9683    0.0000 C   0  0  0  0  0  0  0  0  0  0  0  0
    5.6814   -0.6466    0.0000 C   0  0  0  0  0  0  0  0  0  0  0  0
    2.0836   -2.4288    0.0000 C   0  0  0  0  0  0  0  0  0  0  0  0
    0.7897   -1.6700    0.0000 C   0  0  0  0  0  0  0  0  0  0  0  0
    0.5885    2.3400    0.0000 C   0  0  0  0  0  0  0  0  0  0  0  0
    2.0578    2.6419    0.0000 C   0  0  0  0  0  0  0  0  0  0  0  0
    2.5310    4.0653    0.0000 C   0  0  0  0  0  0  0  0  0  0  0  0
    1.5349    5.1868    0.0000 C   0  0  0  0  0  0  0  0  0  0  0  0
    0.0656    4.8849    0.0000 C   0  0  0  0  0  0  0  0  0  0  0  0
   -0.4076    3.4615    0.0000 C   0  0  0  0  0  0  0  0  0  0  0  0
   -1.8769    3.1595    0.0000 N   0  0  0  0  0  0  0  0  0  0  0  0
   -2.4041    2.3285    0.0000 C   0  0  0  0  0  0  0  0  0  0  0  0
   -2.8730    4.2810    0.0000 C   0  0  0  0  0  0  0  0  0  0  0  0
   -1.3539    0.6146    0.0000 C   0  0  0  0  0  0  0  0  0  0  0  0
   -1.9733   -0.7515    0.0000 N   0  0  0  0  0  0  0  0  0  0  0  0
   -3.4640   -0.5847    0.0000 N   0  0  0  0  0  0  0  0  0  0  0  0
   -4.4752   -1.6925    0.0000 C   0  0  0  0  0  0  0  0  0  0  0  0
   -5.9403   -1.3708    0.0000 C   0  0  0  0  0  0  0  0  0  0  0  0
   -6.9515   -2.4787    0.0000 C   0  0  0  0  0  0  0  0  0  0  0  0
   -6.4976   -3.9083    0.0000 C   0  0  0  0  0  0  0  0  0  0  0  0
   -5.0326   -4.2301    0.0000 C   0  0  0  0  0  0  0  0  0  0  0  0
   -4.0213   -3.1222    0.0000 C   0  0  0  0  0  0  0  0  0  0  0  0
   -3.7659    0.8846    0.0000 C   0  0  0  0  0  0  0  0  0  0  0  0
   -2.4618    1.6258    0.0000 C   0  0  0  0  0  0  0  0  0  0  0  0
  1  2  1  0
  2  3  2  0
  3  4  1  0
  4  5  1  0
  5  6  2  0
  6  7  1  0
  7  8  2  0
  8  9  1  0
  9 10  2  0
  4 11  1  0
 11 12  2  0
  1 13  1  0
 13 14  2  0
 14 15  1  0
 15 16  2  0
 16 17  1  0
 17 18  2  0
 18 19  1  0
 19 20  1  0
 19 21  1  0
  1 22  1  0
 22 23  2  0
 23 24  1  0
 24 25  1  0
 25 26  2  0
 26 27  1  0
 27 28  2  0
 28 29  1  0
 29 30  2  0
 24 31  1  0
 31 32  2  0
 12  2  1  0
 18 13  1  0
 32 22  1  0
 10  5  1  0
 30 25  1  0
M  END
$$$$
Molecule_68
     RDKit          2D

 33 36  0  0  0  0  0  0  0  0999 V2000
    0.6618    0.1589    0.0000 P   0  0  0  0  0  0  0  0  0  0  0  0
    2.0841   -0.3178    0.0000 C   0  0  0  0  0  0  0  0  0  0  0  0
    2.3824   -1.7879    0.0000 C   0  0  0  0  0  0  0  0  0  0  0  0
    1.2584   -2.7812    0.0000 O   0  0  0  0  0  0  0  0  0  0  0  0
   -0.2369   -2.6628    0.0000 C   0  0  0  0  0  0  0  0  0  0  0  0
    3.8046   -2.2645    0.0000 C   0  0  0  0  0  0  0  0  0  0  0  0
    4.9286   -1.2712    0.0000 C   0  0  0  0  0  0  0  0  0  0  0  0
    4.6303    0.1988    0.0000 C   0  0  0  0  0  0  0  0  0  0  0  0
    3.2080    0.6755    0.0000 C   0  0  0  0  0  0  0  0  0  0  0  0
    2.9097    2.1456    0.0000 O   0  0  0  0  0  0  0  0  0  0  0  0
    4.0337    3.1389    0.0000 C   0  0  0  0  0  0  0  0  0  0  0  0
    0.3635    1.6289    0.0000 C   0  0  0  0  0  0  0  0  0  0  0  0
    1.4875    2.6223    0.0000 C   0  0  0  0  0  0  0  0  0  0  0  0
    1.1892    4.0923    0.0000 C   0  0  0  0  0  0  0  0  0  0  0  0
   -0.2331    4.5690    0.0000 C   0  0  0  0  0  0  0  0  0  0  0  0
   -1.3570    3.5756    0.0000 C   0  0  0  0  0  0  0  0  0  0  0  0
   -1.0587    2.1056    0.0000 C   0  0  0  0  0  0  0  0  0  0  0  0
   -2.1827    1.1122    0.0000 N   0  0  0  0  0  0  0  0  0  0  0  0
   -3.6049    1.5889    0.0000 C   0  0  0  0  0  0  0  0  0  0  0  0
   -4.7288    0.5956    0.0000 C   0  0  0  0  0  0  0  0  0  0  0  0
   -4.4305   -0.8745    0.0000 C   0  0  0  0  0  0  0  0  0  0  0  0
   -3.0083   -1.3512    0.0000 C   0  0  0  0  0  0  0  0  0  0  0  0
   -1.8844   -0.3578    0.0000 C   0  0  0  0  0  0  0  0  0  0  0  0
   -0.4621   -0.8345    0.0000 C   0  0  0  0  0  0  0  0  0  0  0  0
   -1.8844   -0.3578    0.0000 C   0  0  0  0  0  0  0  0  0  0  0  0
   -2.1827    1.1122    0.0000 O   0  0  0  0  0  0  0  0  0  0  0  0
   -1.3325    2.3480    0.0000 C   0  0  0  0  0  0  0  0  0  0  0  0
   -3.0083   -1.3512    0.0000 C   0  0  0  0  0  0  0  0  0  0  0  0
   -2.7100   -2.8212    0.0000 C   0  0  0  0  0  0  0  0  0  0  0  0
   -1.2878   -3.2979    0.0000 C   0  0  0  0  0  0  0  0  0  0  0  0
   -0.1638   -2.3045    0.0000 C   0  0  0  0  0  0  0  0  0  0  0  0
    1.2584   -2.7812    0.0000 O   0  0  0  0  0  0  0  0  0  0  0  0
    1.5567   -4.2513    0.0000 C   0  0  0  0  0  0  0  0  0  0  0  0
  1  2  1  0
  2  3  2  0
  3  4  1  0
  4  5  1  0
  3  6  1  0
  6  7  2  0
  7  8  1  0
  8  9  2  0
  9 10  1  0
 10 11  1  0
  1 12  1  0
 12 13  2  0
 13 14  1  0
 14 15  2  0
 15 16  1  0
 16 17  2  0
 17 18  1  0
 18 19  1  0
 19 20  1  0
 20 21  1  0
 21 22  1  0
 22 23  1  0
  1 24  1  0
 24 25  2  0
 25 26  1  0
 26 27  1  0
 25 28  1  0
 28 29  2  0
 29 30  1  0
 30 31  2  0
 31 32  1  0
 32 33  1  0
  9  2  1  0
 17 12  1  0
 23 18  1  0
 31 24  1  0
M  END
$$$$
Molecule_69
     RDKit          2D

 36 40  0  0  0  0  0  0  0  0999 V2000
    1.1917   -0.2020    0.0000 P   0  0  0  0  0  0  0  0  0  0  0  0
    1.2628    1.2963    0.0000 C   0  0  0  0  0  0  0  0  0  0  0  0
    2.5960    1.9838    0.0000 C   0  0  0  0  0  0  0  0  0  0  0  0
    2.6671    3.4821    0.0000 C   0  0  0  0  0  0  0  0  0  0  0  0
    1.4051    4.2929    0.0000 C   0  0  0  0  0  0  0  0  0  0  0  0
    0.0720    3.6054    0.0000 C   0  0  0  0  0  0  0  0  0  0  0  0
   -1.1900    4.4161    0.0000 O   0  0  0  0  0  0  0  0  0  0  0  0
   -1.1189    5.9144    0.0000 C   0  0  0  0  0  0  0  0  0  0  0  0
   -2.3809    6.7252    0.0000 C   0  0  0  0  0  0  0  0  0  0  0  0
    0.2142    6.6020    0.0000 C   0  0  0  0  0  0  0  0  0  0  0  0
    0.0008    2.1070    0.0000 C   0  0  0  0  0  0  0  0  0  0  0  0
   -0.1414   -0.8896    0.0000 C   0  0  0  0  0  0  0  0  0  0  0  0
   -1.4034   -0.0788    0.0000 C   0  0  0  0  0  0  0  0  0  0  0  0
   -2.7366   -0.7664    0.0000 C   0  0  0  0  0  0  0  0  0  0  0  0
   -2.8077   -2.2647    0.0000 C   0  0  0  0  0  0  0  0  0  0  0  0
   -4.1409   -2.9522    0.0000 C   0  0  0  0  0  0  0  0  0  0  0  0
   -5.0495   -1.7587    0.0000 C   0  0  0  0  0  0  0  0  0  0  0  0
   -4.4702   -0.3751    0.0000 C   0  0  0  0  0  0  0  0  0  0  0  0
   -5.3788    0.8184    0.0000 C   0  0  0  0  0  0  0  0  0  0  0  0
   -6.8667    0.6283    0.0000 C   0  0  0  0  0  0  0  0  0  0  0  0
   -7.4460   -0.7554    0.0000 C   0  0  0  0  0  0  0  0  0  0  0  0
   -6.5374   -1.9489    0.0000 C   0  0  0  0  0  0  0  0  0  0  0  0
   -5.1585   -4.0543    0.0000 C   0  0  0  0  0  0  0  0  0  0  0  0
   -3.6953   -4.3845    0.0000 C   0  0  0  0  0  0  0  0  0  0  0  0
   -1.5457   -3.0754    0.0000 C   0  0  0  0  0  0  0  0  0  0  0  0
   -0.2126   -2.3879    0.0000 C   0  0  0  0  0  0  0  0  0  0  0  0
    2.4537   -1.0128    0.0000 C   0  0  0  0  0  0  0  0  0  0  0  0
    2.3826   -2.5111    0.0000 C   0  0  0  0  0  0  0  0  0  0  0  0
    3.6446   -3.3219    0.0000 C   0  0  0  0  0  0  0  0  0  0  0  0
    4.9777   -2.6343    0.0000 C   0  0  0  0  0  0  0  0  0  0  0  0
    5.0489   -1.1360    0.0000 C   0  0  0  0  0  0  0  0  0  0  0  0
    6.3820   -0.4484    0.0000 O   0  0  0  0  0  0  0  0  0  0  0  0
    7.6440   -1.2592    0.0000 C   0  0  0  0  0  0  0  0  0  0  0  0
    8.9772   -0.5717    0.0000 C   0  0  0  0  0  0  0  0  0  0  0  0
    7.5729   -2.7575    0.0000 C   0  0  0  0  0  0  0  0  0  0  0  0
    3.7869   -0.3252    0.0000 C   0  0  0  0  0  0  0  0  0  0  0  0
  1  2  1  0
  2  3  2  0
  3  4  1  0
  4  5  2  0
  5  6  1  0
  6  7  1  0
  7  8  1  0
  8  9  1  0
  8 10  1  0
  6 11  2  0
  1 12  1  0
 12 13  2  0
 13 14  1  0
 14 15  2  0
 15 16  1  0
 16 17  1  0
 17 18  2  0
 18 19  1  0
 19 20  2  0
 20 21  1  0
 21 22  2  0
 16 23  1  0
 23 24  1  0
 15 25  1  0
 25 26  2  0
  1 27  1  0
 27 28  2  0
 28 29  1  0
 29 30  2  0
 30 31  1  0
 31 32  1  0
 32 33  1  0
 33 34  1  0
 33 35  1  0
 31 36  2  0
 11  2  1  0
 26 12  1  0
 36 27  1  0
 24 16  1  0
 22 17  1  0
M  END
$$$$
Molecule_70
     RDKit          2D

 27 31  0  0  0  0  0  0  0  0999 V2000
    0.0000   -0.8889    0.0000 P   0  0  0  0  0  0  0  0  0  0  0  0
   -1.2990   -1.6389    0.0000 C   0  0  0  0  0  0  0  0  0  0  0  0
   -2.5981   -0.8889    0.0000 C   0  0  0  0  0  0  0  0  0  0  0  0
   -3.8971   -1.6389    0.0000 C   0  0  0  0  0  0  0  0  0  0  0  0
   -3.8971   -3.1389    0.0000 C   0  0  0  0  0  0  0  0  0  0  0  0
   -2.5981   -3.8889    0.0000 C   0  0  0  0  0  0  0  0  0  0  0  0
   -1.2990   -3.1389    0.0000 C   0  0  0  0  0  0  0  0  0  0  0  0
   -0.0000    0.6111    0.0000 C   0  0  0  0  0  0  0  0  0  0  0  0
    1.2990    1.3611    0.0000 C   0  0  0  0  0  0  0  0  0  0  0  0
    2.5981    0.6111    0.0000 C   0  0  0  0  0  0  0  0  0  0  0  0
    3.8971    1.3611    0.0000 C   0  0  0  0  0  0  0  0  0  0  0  0
    3.8971    2.8611    0.0000 C   0  0  0  0  0  0  0  0  0  0  0  0
    2.5981    3.6111    0.0000 C   0  0  0  0  0  0  0  0  0  0  0  0
    1.2990    2.8611    0.0000 C   0  0  0  0  0  0  0  0  0  0  0  0
   -0.0000    3.6111    0.0000 C   0  0  0  0  0  0  0  0  0  0  0  0
   -1.2990    2.8611    0.0000 C   0  0  0  0  0  0  0  0  0  0  0  0
   -2.5981    3.6111    0.0000 C   0  0  0  0  0  0  0  0  0  0  0  0
   -3.8971    2.8611    0.0000 C   0  0  0  0  0  0  0  0  0  0  0  0
   -3.8971    1.3611    0.0000 C   0  0  0  0  0  0  0  0  0  0  0  0
   -2.5981    0.6111    0.0000 C   0  0  0  0  0  0  0  0  0  0  0  0
   -1.2990    1.3611    0.0000 C   0  0  0  0  0  0  0  0  0  0  0  0
    1.2990   -1.6389    0.0000 C   0  0  0  0  0  0  0  0  0  0  0  0
    1.2990   -3.1389    0.0000 C   0  0  0  0  0  0  0  0  0  0  0  0
    2.5981   -3.8889    0.0000 C   0  0  0  0  0  0  0  0  0  0  0  0
    3.8971   -3.1389    0.0000 C   0  0  0  0  0  0  0  0  0  0  0  0
    3.8971   -1.6389    0.0000 C   0  0  0  0  0  0  0  0  0  0  0  0
    2.5981   -0.8889    0.0000 C   0  0  0  0  0  0  0  0  0  0  0  0
  1  2  1  0
  2  3  2  0
  3  4  1  0
  4  5  2  0
  5  6  1  0
  6  7  2  0
  1  8  1  0
  8  9  1  0
  9 10  2  0
 10 11  1  0
 11 12  2  0
 12 13  1  0
 13 14  2  0
 14 15  1  0
 15 16  2  0
 16 17  1  0
 17 18  2  0
 18 19  1  0
 19 20  2  0
 20 21  1  0
  1 22  1  0
 22 23  2  0
 23 24  1  0
 24 25  2  0
 25 26  1  0
 26 27  2  0
  7  2  1  0
 21  8  2  0
 27 22  1  0
 14  9  1  0
 21 16  1  0
M  END
$$$$
Molecule_71
     RDKit          2D

 30 33  0  0  0  0  0  0  0  0999 V2000
    5.4851   -1.2386    0.0000 C   0  0  0  0  0  0  0  0  0  0  0  0
    3.9871   -1.3161    0.0000 N   0  0  0  0  0  0  0  0  0  0  0  0
    3.1710   -0.0575    0.0000 C   0  0  0  0  0  0  0  0  0  0  0  0
    1.6730   -0.1350    0.0000 C   0  0  0  0  0  0  0  0  0  0  0  0
    0.9911   -1.4711    0.0000 C   0  0  0  0  0  0  0  0  0  0  0  0
   -0.5069   -1.5486    0.0000 C   0  0  0  0  0  0  0  0  0  0  0  0
   -1.3230   -0.2900    0.0000 P   0  0  0  0  0  0  0  0  0  0  0  0
   -2.8210   -0.3675    0.0000 C   0  0  0  0  0  0  0  0  0  0  0  0
   -3.6371    0.8911    0.0000 C   0  0  0  0  0  0  0  0  0  0  0  0
   -5.1351    0.8136    0.0000 C   0  0  0  0  0  0  0  0  0  0  0  0
   -5.8170   -0.5224    0.0000 C   0  0  0  0  0  0  0  0  0  0  0  0
   -5.0009   -1.7810    0.0000 C   0  0  0  0  0  0  0  0  0  0  0  0
   -3.5029   -1.7035    0.0000 C   0  0  0  0  0  0  0  0  0  0  0  0
   -0.6411    1.0460    0.0000 C   0  0  0  0  0  0  0  0  0  0  0  0
    0.8569    1.1235    0.0000 C   0  0  0  0  0  0  0  0  0  0  0  0
    1.5388    2.4596    0.0000 C   0  0  0  0  0  0  0  0  0  0  0  0
    0.7227    3.7181    0.0000 C   0  0  0  0  0  0  0  0  0  0  0  0
   -0.7753    3.6407    0.0000 C   0  0  0  0  0  0  0  0  0  0  0  0
   -1.4572    2.3046    0.0000 C   0  0  0  0  0  0  0  0  0  0  0  0
   -1.1888   -2.8846    0.0000 C   0  0  0  0  0  0  0  0  0  0  0  0
   -0.3727   -4.1432    0.0000 C   0  0  0  0  0  0  0  0  0  0  0  0
    1.1253   -4.0657    0.0000 C   0  0  0  0  0  0  0  0  0  0  0  0
    1.8072   -2.7296    0.0000 C   0  0  0  0  0  0  0  0  0  0  0  0
    0.8569    1.1235    0.0000 C   0  0  0  0  0  0  0  0  0  0  0  0
   -0.6411    1.0460    0.0000 O   0  0  0  0  0  0  0  0  0  0  0  0
   -1.1284    2.4647    0.0000 C   0  0  0  0  0  0  0  0  0  0  0  0
    1.5388    2.4596    0.0000 C   0  0  0  0  0  0  0  0  0  0  0  0
    3.0368    2.5371    0.0000 C   0  0  0  0  0  0  0  0  0  0  0  0
    3.8529    1.2785    0.0000 C   0  0  0  0  0  0  0  0  0  0  0  0
    3.3052   -2.6522    0.0000 C   0  0  0  0  0  0  0  0  0  0  0  0
  1  2  1  0
  2  3  1  0
  3  4  2  0
  4  5  1  0
  5  6  1  0
  6  7  1  0
  7  8  1  0
  8  9  1  0
  9 10  1  0
 10 11  1  0
 11 12  1  0
 12 13  1  0
  7 14  1  0
 14 15  1  0
 15 16  1  0
 16 17  1  0
 17 18  1  0
 18 19  1  0
  6 20  2  0
 20 21  1  0
 21 22  2  0
 22 23  1  0
  4 24  1  0
 24 25  1  0
 25 26  1  0
 24 27  2  0
 27 28  1  0
 28 29  2  0
  2 30  1  0
 29  3  1  0
 23  5  2  0
 13  8  1  0
 19 14  1  0
M  END
$$$$
Molecule_72
     RDKit          2D

 25 28  0  0  0  0  0  0  0  0999 V2000
    0.9525   -0.0000    0.0000 P   0  0  0  0  0  0  0  0  0  0  0  0
    2.3698    0.4910    0.0000 C   0  0  0  0  0  0  0  0  0  0  0  0
    3.5037   -0.4910    0.0000 C   0  0  0  0  0  0  0  0  0  0  0  0
    4.9211   -0.0000    0.0000 C   0  0  0  0  0  0  0  0  0  0  0  0
    5.2046    1.4730    0.0000 C   0  0  0  0  0  0  0  0  0  0  0  0
    4.0707    2.4550    0.0000 C   0  0  0  0  0  0  0  0  0  0  0  0
    2.6533    1.9640    0.0000 C   0  0  0  0  0  0  0  0  0  0  0  0
    0.6690   -1.4730    0.0000 C   0  0  0  0  0  0  0  0  0  0  0  0
    1.8029   -2.4550    0.0000 C   0  0  0  0  0  0  0  0  0  0  0  0
    1.5194   -3.9279    0.0000 C   0  0  0  0  0  0  0  0  0  0  0  0
    0.1021   -4.4189    0.0000 C   0  0  0  0  0  0  0  0  0  0  0  0
   -1.0318   -3.4369    0.0000 C   0  0  0  0  0  0  0  0  0  0  0  0
   -0.7484   -1.9640    0.0000 C   0  0  0  0  0  0  0  0  0  0  0  0
   -1.8823   -0.9820    0.0000 N   0  0  0  0  0  0  0  0  0  0  0  0
   -3.2996   -1.4730    0.0000 C   0  0  0  0  0  0  0  0  0  0  0  0
   -4.4335   -0.4910    0.0000 C   0  0  0  0  0  0  0  0  0  0  0  0
   -4.1500    0.9820    0.0000 C   0  0  0  0  0  0  0  0  0  0  0  0
   -2.7327    1.4730    0.0000 C   0  0  0  0  0  0  0  0  0  0  0  0
   -1.5988    0.4910    0.0000 C   0  0  0  0  0  0  0  0  0  0  0  0
   -0.1814    0.9820    0.0000 C   0  0  0  0  0  0  0  0  0  0  0  0
    0.1021    2.4550    0.0000 C   0  0  0  0  0  0  0  0  0  0  0  0
   -1.0318    3.4369    0.0000 C   0  0  0  0  0  0  0  0  0  0  0  0
   -2.4492    2.9459    0.0000 C   0  0  0  0  0  0  0  0  0  0  0  0
   -2.7327    1.4730    0.0000 C   0  0  0  0  0  0  0  0  0  0  0  0
   -1.5988    0.4910    0.0000 C   0  0  0  0  0  0  0  0  0  0  0  0
  1  2  1  0
  2  3  2  0
  3  4  1  0
  4  5  2  0
  5  6  1  0
  6  7  2  0
  1  8  1  0
  8  9  2  0
  9 10  1  0
 10 11  2  0
 11 12  1  0
 12 13  2  0
 13 14  1  0
 14 15  1  0
 15 16  1  0
 16 17  1  0
 17 18  1  0
 18 19  1  0
  1 20  1  0
 20 21  2  0
 21 22  1  0
 22 23  2  0
 23 24  1  0
 24 25  2  0
  7  2  1  0
 13  8  1  0
 19 14  1  0
 25 20  1  0
M  END
$$$$
Molecule_73
     RDKit          2D

 36 41  0  0  0  0  0  0  0  0999 V2000
   -4.5890    0.0000    0.0000 P   0  0  0  0  0  0  0  0  0  0  0  0
   -5.3390    1.2990    0.0000 C   0  0  0  0  0  0  0  0  0  0  0  0
   -4.5890    2.5981    0.0000 C   0  0  0  0  0  0  0  0  0  0  0  0
   -5.3390    3.8971    0.0000 C   0  0  0  0  0  0  0  0  0  0  0  0
   -6.8390    3.8971    0.0000 C   0  0  0  0  0  0  0  0  0  0  0  0
   -7.5890    2.5981    0.0000 C   0  0  0  0  0  0  0  0  0  0  0  0
   -6.8390    1.2990    0.0000 C   0  0  0  0  0  0  0  0  0  0  0  0
   -3.0890    0.0000    0.0000 C   0  0  0  0  0  0  0  0  0  0  0  0
   -2.3390   -1.2990    0.0000 C   0  0  0  0  0  0  0  0  0  0  0  0
   -0.8390   -1.2990    0.0000 C   0  0  0  0  0  0  0  0  0  0  0  0
   -0.0890    0.0000    0.0000 C   0  0  0  0  0  0  0  0  0  0  0  0
    1.4110   -0.0000    0.0000 C   0  0  0  0  0  0  0  0  0  0  0  0
    2.2927    1.2135    0.0000 C   0  0  0  0  0  0  0  0  0  0  0  0
    3.7193    0.7500    0.0000 C   0  0  0  0  0  0  0  0  0  0  0  0
    4.9328    1.6317    0.0000 C   0  0  0  0  0  0  0  0  0  0  0  0
    6.3031    1.0216    0.0000 C   0  0  0  0  0  0  0  0  0  0  0  0
    7.5166    1.9033    0.0000 C   0  0  0  0  0  0  0  0  0  0  0  0
    7.3598    3.3950    0.0000 C   0  0  0  0  0  0  0  0  0  0  0  0
    5.9895    4.0051    0.0000 C   0  0  0  0  0  0  0  0  0  0  0  0
    4.7760    3.1235    0.0000 C   0  0  0  0  0  0  0  0  0  0  0  0
    3.7193   -0.7500    0.0000 N   0  0  0  0  0  0  0  0  0  0  0  0
    4.9328   -1.6317    0.0000 C   0  0  0  0  0  0  0  0  0  0  0  0
    4.7760   -3.1235    0.0000 C   0  0  0  0  0  0  0  0  0  0  0  0
    5.9895   -4.0051    0.0000 C   0  0  0  0  0  0  0  0  0  0  0  0
    7.3598   -3.3950    0.0000 C   0  0  0  0  0  0  0  0  0  0  0  0
    7.5166   -1.9033    0.0000 C   0  0  0  0  0  0  0  0  0  0  0  0
    6.3031   -1.0216    0.0000 C   0  0  0  0  0  0  0  0  0  0  0  0
    2.2927   -1.2135    0.0000 N   0  0  0  0  0  0  0  0  0  0  0  0
   -0.8390    1.2990    0.0000 C   0  0  0  0  0  0  0  0  0  0  0  0
   -2.3390    1.2990    0.0000 C   0  0  0  0  0  0  0  0  0  0  0  0
   -5.3390   -1.2990    0.0000 C   0  0  0  0  0  0  0  0  0  0  0  0
   -6.8390   -1.2990    0.0000 C   0  0  0  0  0  0  0  0  0  0  0  0
   -7.5890   -2.5981    0.0000 C   0  0  0  0  0  0  0  0  0  0  0  0
   -6.8390   -3.8971    0.0000 C   0  0  0  0  0  0  0  0  0  0  0  0
   -5.3390   -3.8971    0.0000 C   0  0  0  0  0  0  0  0  0  0  0  0
   -4.5890   -2.5981    0.0000 C   0  0  0  0  0  0  0  0  0  0  0  0
  1  2  1  0
  2  3  2  0
  3  4  1  0
  4  5  2  0
  5  6  1  0
  6  7  2  0
  1  8  1  0
  8  9  2  0
  9 10  1  0
 10 11  2  0
 11 12  1  0
 12 13  1  0
 13 14  2  0
 14 15  1  0
 15 16  2  0
 16 17  1  0
 17 18  2  0
 18 19  1  0
 19 20  2  0
 14 21  1  0
 21 22  1  0
 22 23  2  0
 23 24  1  0
 24 25  2  0
 25 26  1  0
 26 27  2  0
 21 28  1  0
 11 29  1  0
 29 30  2  0
  1 31  1  0
 31 32  2  0
 32 33  1  0
 33 34  2  0
 34 35  1  0
 35 36  2  0
  7  2  1  0
 30  8  1  0
 36 31  1  0
 28 12  2  0
 20 15  1  0
 27 22  1  0
M  END
$$$$
Molecule_74
     RDKit          2D

 31 35  0  0  0  0  0  0  0  0999 V2000
   -0.0000   -0.7681    0.0000 P   0  0  0  0  0  0  0  0  0  0  0  0
    0.4910    0.6492    0.0000 C   0  0  0  0  0  0  0  0  0  0  0  0
    1.9640    0.9327    0.0000 C   0  0  0  0  0  0  0  0  0  0  0  0
    2.4550    2.3501    0.0000 C   0  0  0  0  0  0  0  0  0  0  0  0
    1.4730    3.4840    0.0000 C   0  0  0  0  0  0  0  0  0  0  0  0
    0.0000    3.2005    0.0000 C   0  0  0  0  0  0  0  0  0  0  0  0
   -0.4910    1.7831    0.0000 C   0  0  0  0  0  0  0  0  0  0  0  0
   -1.9640    1.4997    0.0000 N   0  0  0  0  0  0  0  0  0  0  0  0
   -2.4550    0.0823    0.0000 C   0  0  0  0  0  0  0  0  0  0  0  0
   -3.9279   -0.2012    0.0000 C   0  0  0  0  0  0  0  0  0  0  0  0
   -4.9099    0.9327    0.0000 C   0  0  0  0  0  0  0  0  0  0  0  0
   -4.4189    2.3501    0.0000 C   0  0  0  0  0  0  0  0  0  0  0  0
   -2.9459    2.6336    0.0000 C   0  0  0  0  0  0  0  0  0  0  0  0
   -1.4730   -1.0516    0.0000 N   0  0  0  0  0  0  0  0  0  0  0  0
   -2.4550    0.0823    0.0000 C   0  0  0  0  0  0  0  0  0  0  0  0
   -3.9279   -0.2012    0.0000 C   0  0  0  0  0  0  0  0  0  0  0  0
   -4.4189   -1.6185    0.0000 C   0  0  0  0  0  0  0  0  0  0  0  0
   -3.4369   -2.7524    0.0000 C   0  0  0  0  0  0  0  0  0  0  0  0
   -1.9640   -2.4690    0.0000 C   0  0  0  0  0  0  0  0  0  0  0  0
    0.9820   -1.9020    0.0000 C   0  0  0  0  0  0  0  0  0  0  0  0
    0.4910   -3.3194    0.0000 C   0  0  0  0  0  0  0  0  0  0  0  0
    1.4730   -4.4533    0.0000 C   0  0  0  0  0  0  0  0  0  0  0  0
    2.9459   -4.1698    0.0000 C   0  0  0  0  0  0  0  0  0  0  0  0
    3.4369   -2.7524    0.0000 C   0  0  0  0  0  0  0  0  0  0  0  0
    2.4550   -1.6185    0.0000 C   0  0  0  0  0  0  0  0  0  0  0  0
    2.9459   -0.2012    0.0000 N   0  0  0  0  0  0  0  0  0  0  0  0
    4.4189    0.0823    0.0000 C   0  0  0  0  0  0  0  0  0  0  0  0
    4.9099    1.4997    0.0000 C   0  0  0  0  0  0  0  0  0  0  0  0
    3.9279    2.6336    0.0000 C   0  0  0  0  0  0  0  0  0  0  0  0
    2.4550    2.3501    0.0000 C   0  0  0  0  0  0  0  0  0  0  0  0
    1.9640    0.9327    0.0000 C   0  0  0  0  0  0  0  0  0  0  0  0
  1  2  1  0
  2  3  2  0
  3  4  1  0
  4  5  2  0
  5  6  1  0
  6  7  2  0
  7  8  1  0
  8  9  1  0
  9 10  1  0
 10 11  1  0
 11 12  1  0
 12 13  1  0
  1 14  1  0
 14 15  1  0
 15 16  1  0
 16 17  1  0
 17 18  1  0
 18 19  1  0
  1 20  1  0
 20 21  2  0
 21 22  1  0
 22 23  2  0
 23 24  1  0
 24 25  2  0
 25 26  1  0
 26 27  1  0
 27 28  1  0
 28 29  1  0
 29 30  1  0
 30 31  1  0
  7  2  1  0
 13  8  1  0
 19 14  1  0
 25 20  1  0
 31 26  1  0
M  END
$$$$
Molecule_75
     RDKit          2D

 36 41  0  0  0  0  0  0  0  0999 V2000
   -4.5890    0.0000    0.0000 P   0  0  0  0  0  0  0  0  0  0  0  0
   -5.3390    1.2990    0.0000 C   0  0  0  0  0  0  0  0  0  0  0  0
   -4.5890    2.5981    0.0000 C   0  0  0  0  0  0  0  0  0  0  0  0
   -5.3390    3.8971    0.0000 C   0  0  0  0  0  0  0  0  0  0  0  0
   -6.8390    3.8971    0.0000 C   0  0  0  0  0  0  0  0  0  0  0  0
   -7.5890    2.5981    0.0000 C   0  0  0  0  0  0  0  0  0  0  0  0
   -6.8390    1.2990    0.0000 C   0  0  0  0  0  0  0  0  0  0  0  0
   -3.0890    0.0000    0.0000 C   0  0  0  0  0  0  0  0  0  0  0  0
   -2.3390   -1.2990    0.0000 C   0  0  0  0  0  0  0  0  0  0  0  0
   -0.8390   -1.2990    0.0000 C   0  0  0  0  0  0  0  0  0  0  0  0
   -0.0890    0.0000    0.0000 C   0  0  0  0  0  0  0  0  0  0  0  0
    1.4110   -0.0000    0.0000 C   0  0  0  0  0  0  0  0  0  0  0  0
    2.2927    1.2135    0.0000 C   0  0  0  0  0  0  0  0  0  0  0  0
    3.7193    0.7500    0.0000 C   0  0  0  0  0  0  0  0  0  0  0  0
    4.9328    1.6317    0.0000 C   0  0  0  0  0  0  0  0  0  0  0  0
    6.3031    1.0216    0.0000 C   0  0  0  0  0  0  0  0  0  0  0  0
    7.5166    1.9033    0.0000 C   0  0  0  0  0  0  0  0  0  0  0  0
    7.3598    3.3950    0.0000 C   0  0  0  0  0  0  0  0  0  0  0  0
    5.9895    4.0051    0.0000 C   0  0  0  0  0  0  0  0  0  0  0  0
    4.7760    3.1235    0.0000 C   0  0  0  0  0  0  0  0  0  0  0  0
    3.7193   -0.7500    0.0000 N   0  0  0  0  0  0  0  0  0  0  0  0
    4.9328   -1.6317    0.0000 C   0  0  0  0  0  0  0  0  0  0  0  0
    4.7760   -3.1235    0.0000 C   0  0  0  0  0  0  0  0  0  0  0  0
    5.9895   -4.0051    0.0000 C   0  0  0  0  0  0  0  0  0  0  0  0
    7.3598   -3.3950    0.0000 C   0  0  0  0  0  0  0  0  0  0  0  0
    7.5166   -1.9033    0.0000 C   0  0  0  0  0  0  0  0  0  0  0  0
    6.3031   -1.0216    0.0000 C   0  0  0  0  0  0  0  0  0  0  0  0
    2.2927   -1.2135    0.0000 N   0  0  0  0  0  0  0  0  0  0  0  0
   -0.8390    1.2990    0.0000 C   0  0  0  0  0  0  0  0  0  0  0  0
   -2.3390    1.2990    0.0000 C   0  0  0  0  0  0  0  0  0  0  0  0
   -5.3390   -1.2990    0.0000 C   0  0  0  0  0  0  0  0  0  0  0  0
   -6.8390   -1.2990    0.0000 C   0  0  0  0  0  0  0  0  0  0  0  0
   -7.5890   -2.5981    0.0000 C   0  0  0  0  0  0  0  0  0  0  0  0
   -6.8390   -3.8971    0.0000 C   0  0  0  0  0  0  0  0  0  0  0  0
   -5.3390   -3.8971    0.0000 C   0  0  0  0  0  0  0  0  0  0  0  0
   -4.5890   -2.5981    0.0000 C   0  0  0  0  0  0  0  0  0  0  0  0
  1  2  1  0
  2  3  2  0
  3  4  1  0
  4  5  2  0
  5  6  1  0
  6  7  2  0
  1  8  1  0
  8  9  2  0
  9 10  1  0
 10 11  2  0
 11 12  1  0
 12 13  1  0
 13 14  2  0
 14 15  1  0
 15 16  2  0
 16 17  1  0
 17 18  2  0
 18 19  1  0
 19 20  2  0
 14 21  1  0
 21 22  1  0
 22 23  2  0
 23 24  1  0
 24 25  2  0
 25 26  1  0
 26 27  2  0
 21 28  1  0
 11 29  1  0
 29 30  2  0
  1 31  1  0
 31 32  2  0
 32 33  1  0
 33 34  2  0
 34 35  1  0
 35 36  2  0
  7  2  1  0
 30  8  1  0
 36 31  1  0
 28 12  2  0
 20 15  1  0
 27 22  1  0
M  END
$$$$
Molecule_76
     RDKit          2D

 37 40  0  0  0  0  0  0  0  0999 V2000
    0.5265    0.3478    0.0000 P   0  0  0  0  0  0  0  0  0  0  0  0
    2.0179    0.1870    0.0000 C   0  0  0  0  0  0  0  0  0  0  0  0
    2.6244   -1.1849    0.0000 C   0  0  0  0  0  0  0  0  0  0  0  0
    1.7395   -2.3961    0.0000 N   0  0  0  0  0  0  0  0  0  0  0  0
    0.2535   -2.6010    0.0000 C   0  0  0  0  0  0  0  0  0  0  0  0
    2.5087   -3.6839    0.0000 C   0  0  0  0  0  0  0  0  0  0  0  0
    4.1157   -1.3456    0.0000 C   0  0  0  0  0  0  0  0  0  0  0  0
    5.0006   -0.1344    0.0000 C   0  0  0  0  0  0  0  0  0  0  0  0
    4.3941    1.2375    0.0000 C   0  0  0  0  0  0  0  0  0  0  0  0
    2.9028    1.3982    0.0000 C   0  0  0  0  0  0  0  0  0  0  0  0
    2.2963    2.7701    0.0000 N   0  0  0  0  0  0  0  0  0  0  0  0
    3.1811    3.9813    0.0000 C   0  0  0  0  0  0  0  0  0  0  0  0
    1.5479    3.0448    0.0000 C   0  0  0  0  0  0  0  0  0  0  0  0
   -0.0800    1.7197    0.0000 C   0  0  0  0  0  0  0  0  0  0  0  0
    0.8049    2.9309    0.0000 C   0  0  0  0  0  0  0  0  0  0  0  0
    0.1984    4.3028    0.0000 C   0  0  0  0  0  0  0  0  0  0  0  0
   -1.2929    4.4635    0.0000 C   0  0  0  0  0  0  0  0  0  0  0  0
   -2.1778    3.2523    0.0000 C   0  0  0  0  0  0  0  0  0  0  0  0
   -1.5713    1.8804    0.0000 C   0  0  0  0  0  0  0  0  0  0  0  0
   -2.4562    0.6692    0.0000 N   0  0  0  0  0  0  0  0  0  0  0  0
   -3.9476    0.8299    0.0000 C   0  0  0  0  0  0  0  0  0  0  0  0
   -4.8325   -0.3812    0.0000 C   0  0  0  0  0  0  0  0  0  0  0  0
   -4.2260   -1.7532    0.0000 C   0  0  0  0  0  0  0  0  0  0  0  0
   -2.7346   -1.9139    0.0000 C   0  0  0  0  0  0  0  0  0  0  0  0
   -1.8497   -0.7027    0.0000 C   0  0  0  0  0  0  0  0  0  0  0  0
   -0.3584   -0.8634    0.0000 C   0  0  0  0  0  0  0  0  0  0  0  0
   -1.8497   -0.7027    0.0000 C   0  0  0  0  0  0  0  0  0  0  0  0
   -2.4562    0.6692    0.0000 N   0  0  0  0  0  0  0  0  0  0  0  0
   -1.8907    2.0585    0.0000 C   0  0  0  0  0  0  0  0  0  0  0  0
   -3.9422    0.4643    0.0000 C   0  0  0  0  0  0  0  0  0  0  0  0
   -2.7346   -1.9139    0.0000 C   0  0  0  0  0  0  0  0  0  0  0  0
   -2.1281   -3.2858    0.0000 C   0  0  0  0  0  0  0  0  0  0  0  0
   -0.6368   -3.4466    0.0000 C   0  0  0  0  0  0  0  0  0  0  0  0
    0.2481   -2.2354    0.0000 C   0  0  0  0  0  0  0  0  0  0  0  0
    1.7395   -2.3961    0.0000 N   0  0  0  0  0  0  0  0  0  0  0  0
    2.1742   -3.8317    0.0000 C   0  0  0  0  0  0  0  0  0  0  0  0
    2.8911   -1.4350    0.0000 C   0  0  0  0  0  0  0  0  0  0  0  0
  1  2  1  0
  2  3  2  0
  3  4  1  0
  4  5  1  0
  4  6  1  0
  3  7  1  0
  7  8  2  0
  8  9  1  0
  9 10  2  0
 10 11  1  0
 11 12  1  0
 11 13  1  0
  1 14  1  0
 14 15  2  0
 15 16  1  0
 16 17  2  0
 17 18  1  0
 18 19  2  0
 19 20  1  0
 20 21  1  0
 21 22  1  0
 22 23  1  0
 23 24  1  0
 24 25  1  0
  1 26  1  0
 26 27  2  0
 27 28  1  0
 28 29  1  0
 28 30  1  0
 27 31  1  0
 31 32  2  0
 32 33  1  0
 33 34  2  0
 34 35  1  0
 35 36  1  0
 35 37  1  0
 10  2  1  0
 19 14  1  0
 25 20  1  0
 34 26  1  0
M  END
$$$$
Molecule_77
     RDKit          2D

 35 37  0  0  0  0  0  0  0  0999 V2000
   -0.5136   -0.0000    0.0000 P   0  0  0  0  0  0  0  0  0  0  0  0
    0.2364    1.2990    0.0000 C   0  0  0  0  0  0  0  0  0  0  0  0
   -0.5136    2.5981    0.0000 C   0  0  0  0  0  0  0  0  0  0  0  0
   -2.0136    2.5981    0.0000 O   0  0  0  0  0  0  0  0  0  0  0  0
   -2.7636    3.8971    0.0000 C   0  0  0  0  0  0  0  0  0  0  0  0
   -4.2636    3.8971    0.0000 C   0  0  0  0  0  0  0  0  0  0  0  0
   -2.0136    5.1962    0.0000 C   0  0  0  0  0  0  0  0  0  0  0  0
    0.2364    3.8971    0.0000 C   0  0  0  0  0  0  0  0  0  0  0  0
    1.7364    3.8971    0.0000 C   0  0  0  0  0  0  0  0  0  0  0  0
    2.4864    2.5981    0.0000 C   0  0  0  0  0  0  0  0  0  0  0  0
    1.7364    1.2990    0.0000 C   0  0  0  0  0  0  0  0  0  0  0  0
    2.4864   -0.0000    0.0000 O   0  0  0  0  0  0  0  0  0  0  0  0
    3.9864   -0.0000    0.0000 C   0  0  0  0  0  0  0  0  0  0  0  0
    4.5724   -1.3808    0.0000 C   0  0  0  0  0  0  0  0  0  0  0  0
    4.5724    1.3808    0.0000 C   0  0  0  0  0  0  0  0  0  0  0  0
   -2.0136   -0.0000    0.0000 C   0  0  0  0  0  0  0  0  0  0  0  0
   -2.7636    1.2990    0.0000 C   0  0  0  0  0  0  0  0  0  0  0  0
   -4.2636    1.2990    0.0000 C   0  0  0  0  0  0  0  0  0  0  0  0
   -5.0136   -0.0000    0.0000 N   0  0  0  0  0  0  0  0  0  0  0  0
   -4.2636   -1.2990    0.0000 C   0  0  0  0  0  0  0  0  0  0  0  0
   -2.7636   -1.2990    0.0000 C   0  0  0  0  0  0  0  0  0  0  0  0
    0.2364   -1.2990    0.0000 C   0  0  0  0  0  0  0  0  0  0  0  0
   -0.5136   -2.5981    0.0000 C   0  0  0  0  0  0  0  0  0  0  0  0
   -2.0136   -2.5981    0.0000 O   0  0  0  0  0  0  0  0  0  0  0  0
   -2.7636   -3.8971    0.0000 C   0  0  0  0  0  0  0  0  0  0  0  0
   -4.2636   -3.8971    0.0000 C   0  0  0  0  0  0  0  0  0  0  0  0
   -2.0136   -5.1962    0.0000 C   0  0  0  0  0  0  0  0  0  0  0  0
    0.2364   -3.8971    0.0000 C   0  0  0  0  0  0  0  0  0  0  0  0
    1.7364   -3.8971    0.0000 C   0  0  0  0  0  0  0  0  0  0  0  0
    2.4864   -2.5981    0.0000 C   0  0  0  0  0  0  0  0  0  0  0  0
    1.7364   -1.2990    0.0000 C   0  0  0  0  0  0  0  0  0  0  0  0
    2.4864   -0.0000    0.0000 O   0  0  0  0  0  0  0  0  0  0  0  0
    3.9864   -0.0000    0.0000 C   0  0  0  0  0  0  0  0  0  0  0  0
    4.8891    1.1979    0.0000 C   0  0  0  0  0  0  0  0  0  0  0  0
    4.8891   -1.1979    0.0000 C   0  0  0  0  0  0  0  0  0  0  0  0
  1  2  1  0
  2  3  2  0
  3  4  1  0
  4  5  1  0
  5  6  1  0
  5  7  1  0
  3  8  1  0
  8  9  2  0
  9 10  1  0
 10 11  2  0
 11 12  1  0
 12 13  1  0
 13 14  1  0
 13 15  1  0
  1 16  1  0
 16 17  2  0
 17 18  1  0
 18 19  2  0
 19 20  1  0
 20 21  2  0
  1 22  1  0
 22 23  2  0
 23 24  1  0
 24 25  1  0
 25 26  1  0
 25 27  1  0
 23 28  1  0
 28 29  2  0
 29 30  1  0
 30 31  2  0
 31 32  1  0
 32 33  1  0
 33 34  1  0
 33 35  1  0
 11  2  1  0
 21 16  1  0
 31 22  1  0
M  END
$$$$
Molecule_78
     RDKit          2D

 40 46  0  0  0  0  0  0  0  0999 V2000
   -0.2462   -0.0879    0.0000 P   0  0  0  0  0  0  0  0  0  0  0  0
    0.3416   -1.4679    0.0000 C   0  0  0  0  0  0  0  0  0  0  0  0
    1.8036   -1.8035    0.0000 N   0  0  0  0  0  0  0  0  0  0  0  0
    1.9363   -3.2976    0.0000 N   0  0  0  0  0  0  0  0  0  0  0  0
    3.2230   -4.0685    0.0000 C   0  0  0  0  0  0  0  0  0  0  0  0
    3.1987   -5.5683    0.0000 C   0  0  0  0  0  0  0  0  0  0  0  0
    4.4855   -6.3393    0.0000 C   0  0  0  0  0  0  0  0  0  0  0  0
    5.7965   -5.6104    0.0000 C   0  0  0  0  0  0  0  0  0  0  0  0
    5.8207   -4.1106    0.0000 C   0  0  0  0  0  0  0  0  0  0  0  0
    4.5340   -3.3397    0.0000 C   0  0  0  0  0  0  0  0  0  0  0  0
    0.5562   -3.8855    0.0000 C   0  0  0  0  0  0  0  0  0  0  0  0
   -0.4293   -2.7547    0.0000 C   0  0  0  0  0  0  0  0  0  0  0  0
    0.6550    1.1112    0.0000 C   0  0  0  0  0  0  0  0  0  0  0  0
    0.2146    2.5451    0.0000 C   0  0  0  0  0  0  0  0  0  0  0  0
   -1.2043    3.0316    0.0000 C   0  0  0  0  0  0  0  0  0  0  0  0
   -2.3351    2.0461    0.0000 C   0  0  0  0  0  0  0  0  0  0  0  0
   -3.7540    2.5327    0.0000 C   0  0  0  0  0  0  0  0  0  0  0  0
   -4.0421    4.0047    0.0000 C   0  0  0  0  0  0  0  0  0  0  0  0
   -2.9113    4.9903    0.0000 C   0  0  0  0  0  0  0  0  0  0  0  0
   -1.4924    4.5037    0.0000 C   0  0  0  0  0  0  0  0  0  0  0  0
    1.4422    3.4070    0.0000 N   0  0  0  0  0  0  0  0  0  0  0  0
    2.6413    2.5058    0.0000 N   0  0  0  0  0  0  0  0  0  0  0  0
    4.0752    2.9462    0.0000 C   0  0  0  0  0  0  0  0  0  0  0  0
    5.1736    1.9246    0.0000 C   0  0  0  0  0  0  0  0  0  0  0  0
    6.6075    2.3650    0.0000 C   0  0  0  0  0  0  0  0  0  0  0  0
    6.9430    3.8270    0.0000 C   0  0  0  0  0  0  0  0  0  0  0  0
    5.8447    4.8486    0.0000 C   0  0  0  0  0  0  0  0  0  0  0  0
    4.4108    4.4082    0.0000 C   0  0  0  0  0  0  0  0  0  0  0  0
    2.1548    1.0869    0.0000 C   0  0  0  0  0  0  0  0  0  0  0  0
   -1.7353    0.0930    0.0000 C   0  0  0  0  0  0  0  0  0  0  0  0
   -2.7569   -1.0053    0.0000 N   0  0  0  0  0  0  0  0  0  0  0  0
   -4.1171   -0.3731    0.0000 N   0  0  0  0  0  0  0  0  0  0  0  0
   -5.4281   -1.1020    0.0000 C   0  0  0  0  0  0  0  0  0  0  0  0
   -6.7149   -0.3311    0.0000 C   0  0  0  0  0  0  0  0  0  0  0  0
   -8.0259   -1.0600    0.0000 C   0  0  0  0  0  0  0  0  0  0  0  0
   -8.0501   -2.5598    0.0000 C   0  0  0  0  0  0  0  0  0  0  0  0
   -6.7634   -3.3307    0.0000 C   0  0  0  0  0  0  0  0  0  0  0  0
   -5.4524   -2.6018    0.0000 C   0  0  0  0  0  0  0  0  0  0  0  0
   -3.9362    1.1159    0.0000 C   0  0  0  0  0  0  0  0  0  0  0  0
   -2.4641    1.4040    0.0000 C   0  0  0  0  0  0  0  0  0  0  0  0
  1  2  1  0
  2  3  2  0
  3  4  1  0
  4  5  1  0
  5  6  2  0
  6  7  1  0
  7  8  2  0
  8  9  1  0
  9 10  2  0
  4 11  1  0
 11 12  2  0
  1 13  1  0
 13 14  1  0
 14 15  1  0
 15 16  2  0
 16 17  1  0
 17 18  2  0
 18 19  1  0
 19 20  2  0
 14 21  2  0
 21 22  1  0
 22 23  1  0
 23 24  2  0
 24 25  1  0
 25 26  2  0
 26 27  1  0
 27 28  2  0
 22 29  1  0
  1 30  1  0
 30 31  2  0
 31 32  1  0
 32 33  1  0
 33 34  2  0
 34 35  1  0
 35 36  2  0
 36 37  1  0
 37 38  2  0
 32 39  1  0
 39 40  2  0
 12  2  1  0
 29 13  2  0
 40 30  1  0
 10  5  1  0
 20 15  1  0
 28 23  1  0
 38 33  1  0
M  END
$$$$
Molecule_79
     RDKit          2D

 30 34  0  0  0  0  0  0  0  0999 V2000
   -1.9561    0.1134    0.0000 P   0  0  0  0  0  0  0  0  0  0  0  0
   -2.3131    1.5703    0.0000 C   0  0  0  0  0  0  0  0  0  0  0  0
   -1.2299    2.6079    0.0000 C   0  0  0  0  0  0  0  0  0  0  0  0
   -1.5869    4.0648    0.0000 C   0  0  0  0  0  0  0  0  0  0  0  0
   -3.0271    4.4841    0.0000 C   0  0  0  0  0  0  0  0  0  0  0  0
   -4.1103    3.4465    0.0000 C   0  0  0  0  0  0  0  0  0  0  0  0
   -3.7533    1.9896    0.0000 C   0  0  0  0  0  0  0  0  0  0  0  0
   -4.8366    0.9519    0.0000 C   0  0  0  0  0  0  0  0  0  0  0  0
   -0.5159   -0.3059    0.0000 C   0  0  0  0  0  0  0  0  0  0  0  0
   -0.1589   -1.7628    0.0000 C   0  0  0  0  0  0  0  0  0  0  0  0
    1.2813   -2.1821    0.0000 C   0  0  0  0  0  0  0  0  0  0  0  0
    2.3645   -1.1445    0.0000 C   0  0  0  0  0  0  0  0  0  0  0  0
    3.8047   -1.5638    0.0000 C   0  0  0  0  0  0  0  0  0  0  0  0
    4.4677   -0.2183    0.0000 C   0  0  0  0  0  0  0  0  0  0  0  0
    5.9645   -0.1197    0.0000 C   0  0  0  0  0  0  0  0  0  0  0  0
    6.6275    1.2258    0.0000 C   0  0  0  0  0  0  0  0  0  0  0  0
    5.7937    2.4728    0.0000 C   0  0  0  0  0  0  0  0  0  0  0  0
    4.2970    2.3742    0.0000 C   0  0  0  0  0  0  0  0  0  0  0  0
    3.6339    1.0287    0.0000 C   0  0  0  0  0  0  0  0  0  0  0  0
    5.0146   -2.4504    0.0000 C   0  0  0  0  0  0  0  0  0  0  0  0
    3.6419   -3.0549    0.0000 C   0  0  0  0  0  0  0  0  0  0  0  0
    2.0075    0.3124    0.0000 C   0  0  0  0  0  0  0  0  0  0  0  0
    0.5673    0.7317    0.0000 C   0  0  0  0  0  0  0  0  0  0  0  0
   -3.0394   -0.9242    0.0000 C   0  0  0  0  0  0  0  0  0  0  0  0
   -4.4796   -0.5050    0.0000 C   0  0  0  0  0  0  0  0  0  0  0  0
   -5.5628   -1.5426    0.0000 C   0  0  0  0  0  0  0  0  0  0  0  0
   -5.2058   -2.9995    0.0000 C   0  0  0  0  0  0  0  0  0  0  0  0
   -3.7656   -3.4188    0.0000 C   0  0  0  0  0  0  0  0  0  0  0  0
   -2.6824   -2.3811    0.0000 C   0  0  0  0  0  0  0  0  0  0  0  0
   -1.2422   -2.8004    0.0000 C   0  0  0  0  0  0  0  0  0  0  0  0
  1  2  1  0
  2  3  2  0
  3  4  1  0
  4  5  2  0
  5  6  1  0
  6  7  2  0
  7  8  1  0
  1  9  1  0
  9 10  2  0
 10 11  1  0
 11 12  2  0
 12 13  1  0
 13 14  1  0
 14 15  2  0
 15 16  1  0
 16 17  2  0
 17 18  1  0
 18 19  2  0
 13 20  1  0
 20 21  1  0
 12 22  1  0
 22 23  2  0
  1 24  1  0
 24 25  2  0
 25 26  1  0
 26 27  2  0
 27 28  1  0
 28 29  2  0
 29 30  1  0
  7  2  1  0
 23  9  1  0
 29 24  1  0
 21 13  1  0
 19 14  1  0
M  END
$$$$
Molecule_80
     RDKit          2D

 33 36  0  0  0  0  0  0  0  0999 V2000
   -0.4875   -0.5162    0.0000 P   0  0  0  0  0  0  0  0  0  0  0  0
    0.9193    0.0044    0.0000 C   0  0  0  0  0  0  0  0  0  0  0  0
    2.0735   -0.9535    0.0000 C   0  0  0  0  0  0  0  0  0  0  0  0
    3.4803   -0.4329    0.0000 C   0  0  0  0  0  0  0  0  0  0  0  0
    3.7327    1.0457    0.0000 C   0  0  0  0  0  0  0  0  0  0  0  0
    2.5785    2.0037    0.0000 C   0  0  0  0  0  0  0  0  0  0  0  0
    2.8310    3.4823    0.0000 O   0  0  0  0  0  0  0  0  0  0  0  0
    4.2377    4.0029    0.0000 C   0  0  0  0  0  0  0  0  0  0  0  0
    4.4902    5.4815    0.0000 C   0  0  0  0  0  0  0  0  0  0  0  0
    5.3920    3.0449    0.0000 C   0  0  0  0  0  0  0  0  0  0  0  0
    1.1717    1.4830    0.0000 C   0  0  0  0  0  0  0  0  0  0  0  0
   -0.7400   -1.9948    0.0000 C   0  0  0  0  0  0  0  0  0  0  0  0
   -2.1467   -2.5155    0.0000 C   0  0  0  0  0  0  0  0  0  0  0  0
   -2.3992   -3.9941    0.0000 C   0  0  0  0  0  0  0  0  0  0  0  0
   -1.2450   -4.9520    0.0000 C   0  0  0  0  0  0  0  0  0  0  0  0
    0.1618   -4.4314    0.0000 C   0  0  0  0  0  0  0  0  0  0  0  0
    0.4143   -2.9528    0.0000 C   0  0  0  0  0  0  0  0  0  0  0  0
    1.8210   -2.4321    0.0000 N   0  0  0  0  0  0  0  0  0  0  0  0
    2.9753   -3.3901    0.0000 C   0  0  0  0  0  0  0  0  0  0  0  0
    4.3820   -2.8695    0.0000 C   0  0  0  0  0  0  0  0  0  0  0  0
    4.6345   -1.3909    0.0000 C   0  0  0  0  0  0  0  0  0  0  0  0
    3.4803   -0.4329    0.0000 C   0  0  0  0  0  0  0  0  0  0  0  0
    2.0735   -0.9535    0.0000 C   0  0  0  0  0  0  0  0  0  0  0  0
   -1.6418    0.4417    0.0000 C   0  0  0  0  0  0  0  0  0  0  0  0
   -1.3893    1.9203    0.0000 C   0  0  0  0  0  0  0  0  0  0  0  0
   -2.5435    2.8783    0.0000 C   0  0  0  0  0  0  0  0  0  0  0  0
   -3.9503    2.3577    0.0000 C   0  0  0  0  0  0  0  0  0  0  0  0
   -4.2028    0.8791    0.0000 C   0  0  0  0  0  0  0  0  0  0  0  0
   -5.6095    0.3584    0.0000 O   0  0  0  0  0  0  0  0  0  0  0  0
   -6.7638    1.3164    0.0000 C   0  0  0  0  0  0  0  0  0  0  0  0
   -8.1705    0.7957    0.0000 C   0  0  0  0  0  0  0  0  0  0  0  0
   -6.5113    2.7950    0.0000 C   0  0  0  0  0  0  0  0  0  0  0  0
   -3.0485   -0.0789    0.0000 C   0  0  0  0  0  0  0  0  0  0  0  0
  1  2  1  0
  2  3  2  0
  3  4  1  0
  4  5  2  0
  5  6  1  0
  6  7  1  0
  7  8  1  0
  8  9  1  0
  8 10  1  0
  6 11  2  0
  1 12  1  0
 12 13  2  0
 13 14  1  0
 14 15  2  0
 15 16  1  0
 16 17  2  0
 17 18  1  0
 18 19  1  0
 19 20  1  0
 20 21  1  0
 21 22  1  0
 22 23  1  0
  1 24  1  0
 24 25  2  0
 25 26  1  0
 26 27  2  0
 27 28  1  0
 28 29  1  0
 29 30  1  0
 30 31  1  0
 30 32  1  0
 28 33  2  0
 11  2  1  0
 17 12  1  0
 23 18  1  0
 33 24  1  0
M  END
$$$$
Molecule_81
     RDKit          2D

 40 47  0  0  0  0  0  0  0  0999 V2000
   -0.3565   -0.2627    0.0000 P   0  0  0  0  0  0  0  0  0  0  0  0
   -0.5661    1.2225    0.0000 C   0  0  0  0  0  0  0  0  0  0  0  0
   -1.9572    1.7836    0.0000 C   0  0  0  0  0  0  0  0  0  0  0  0
   -3.1387    0.8594    0.0000 C   0  0  0  0  0  0  0  0  0  0  0  0
   -4.5298    1.4205    0.0000 C   0  0  0  0  0  0  0  0  0  0  0  0
   -4.7394    2.9058    0.0000 C   0  0  0  0  0  0  0  0  0  0  0  0
   -3.5579    3.8300    0.0000 C   0  0  0  0  0  0  0  0  0  0  0  0
   -2.1668    3.2689    0.0000 C   0  0  0  0  0  0  0  0  0  0  0  0
   -0.9854    4.1931    0.0000 C   0  0  0  0  0  0  0  0  0  0  0  0
    0.4057    3.6320    0.0000 C   0  0  0  0  0  0  0  0  0  0  0  0
    1.5872    4.5562    0.0000 C   0  0  0  0  0  0  0  0  0  0  0  0
    2.9783    3.9951    0.0000 C   0  0  0  0  0  0  0  0  0  0  0  0
    3.1880    2.5098    0.0000 C   0  0  0  0  0  0  0  0  0  0  0  0
    2.0065    1.5856    0.0000 C   0  0  0  0  0  0  0  0  0  0  0  0
    0.6154    2.1467    0.0000 C   0  0  0  0  0  0  0  0  0  0  0  0
    1.0347   -0.8238    0.0000 C   0  0  0  0  0  0  0  0  0  0  0  0
    2.3063   -0.0282    0.0000 N   0  0  0  0  0  0  0  0  0  0  0  0
    3.4559   -0.9917    0.0000 N   0  0  0  0  0  0  0  0  0  0  0  0
    4.9111   -0.6280    0.0000 C   0  0  0  0  0  0  0  0  0  0  0  0
    5.9537   -1.7063    0.0000 C   0  0  0  0  0  0  0  0  0  0  0  0
    7.4090   -1.3426    0.0000 C   0  0  0  0  0  0  0  0  0  0  0  0
    7.8216    0.0995    0.0000 C   0  0  0  0  0  0  0  0  0  0  0  0
    6.7790    1.1779    0.0000 C   0  0  0  0  0  0  0  0  0  0  0  0
    5.3237    0.8142    0.0000 C   0  0  0  0  0  0  0  0  0  0  0  0
    2.8948   -2.3828    0.0000 C   0  0  0  0  0  0  0  0  0  0  0  0
    1.3984   -2.2791    0.0000 C   0  0  0  0  0  0  0  0  0  0  0  0
   -1.5379   -1.1869    0.0000 C   0  0  0  0  0  0  0  0  0  0  0  0
   -2.9290   -0.6258    0.0000 C   0  0  0  0  0  0  0  0  0  0  0  0
   -3.1387    0.8594    0.0000 C   0  0  0  0  0  0  0  0  0  0  0  0
   -4.5298    1.4205    0.0000 C   0  0  0  0  0  0  0  0  0  0  0  0
   -5.7112    0.4963    0.0000 C   0  0  0  0  0  0  0  0  0  0  0  0
   -5.5016   -0.9890    0.0000 C   0  0  0  0  0  0  0  0  0  0  0  0
   -4.1105   -1.5500    0.0000 C   0  0  0  0  0  0  0  0  0  0  0  0
   -3.9009   -3.0353    0.0000 C   0  0  0  0  0  0  0  0  0  0  0  0
   -2.5098   -3.5964    0.0000 C   0  0  0  0  0  0  0  0  0  0  0  0
   -2.3001   -5.0817    0.0000 C   0  0  0  0  0  0  0  0  0  0  0  0
   -0.9090   -5.6428    0.0000 C   0  0  0  0  0  0  0  0  0  0  0  0
    0.2725   -4.7186    0.0000 C   0  0  0  0  0  0  0  0  0  0  0  0
    0.0628   -3.2333    0.0000 C   0  0  0  0  0  0  0  0  0  0  0  0
   -1.3283   -2.6722    0.0000 C   0  0  0  0  0  0  0  0  0  0  0  0
  1  2  1  0
  2  3  1  0
  3  4  2  0
  4  5  1  0
  5  6  2  0
  6  7  1  0
  7  8  2  0
  8  9  1  0
  9 10  2  0
 10 11  1  0
 11 12  2  0
 12 13  1  0
 13 14  2  0
 14 15  1  0
  1 16  1  0
 16 17  2  0
 17 18  1  0
 18 19  1  0
 19 20  2  0
 20 21  1  0
 21 22  2  0
 22 23  1  0
 23 24  2  0
 18 25  1  0
 25 26  2  0
  1 27  1  0
 27 28  1  0
 28 29  2  0
 29 30  1  0
 30 31  2  0
 31 32  1  0
 32 33  2  0
 33 34  1  0
 34 35  2  0
 35 36  1  0
 36 37  2  0
 37 38  1  0
 38 39  2  0
 39 40  1  0
 15  2  2  0
 26 16  1  0
 40 27  2  0
  8  3  1  0
 15 10  1  0
 24 19  1  0
 33 28  1  0
 40 35  1  0
M  END
$$$$
Molecule_82
     RDKit          2D

 36 39  0  0  0  0  0  0  0  0999 V2000
    0.3098    0.0020    0.0000 P   0  0  0  0  0  0  0  0  0  0  0  0
    1.6311    0.7121    0.0000 C   0  0  0  0  0  0  0  0  0  0  0  0
    2.9066   -0.0772    0.0000 C   0  0  0  0  0  0  0  0  0  0  0  0
    4.2279    0.6329    0.0000 C   0  0  0  0  0  0  0  0  0  0  0  0
    4.2736    2.1322    0.0000 C   0  0  0  0  0  0  0  0  0  0  0  0
    5.5949    2.8422    0.0000 N   0  0  0  0  0  0  0  0  0  0  0  0
    6.8705    2.0530    0.0000 C   0  0  0  0  0  0  0  0  0  0  0  0
    5.6406    4.3416    0.0000 C   0  0  0  0  0  0  0  0  0  0  0  0
    2.9981    2.9214    0.0000 C   0  0  0  0  0  0  0  0  0  0  0  0
    1.6768    2.2114    0.0000 C   0  0  0  0  0  0  0  0  0  0  0  0
    0.4012    3.0006    0.0000 N   0  0  0  0  0  0  0  0  0  0  0  0
    0.4469    4.4999    0.0000 C   0  0  0  0  0  0  0  0  0  0  0  0
   -0.5527    2.7583    0.0000 C   0  0  0  0  0  0  0  0  0  0  0  0
   -0.9658    0.7912    0.0000 C   0  0  0  0  0  0  0  0  0  0  0  0
   -2.3541    0.2232    0.0000 N   0  0  0  0  0  0  0  0  0  0  0  0
   -3.3234    1.3680    0.0000 N   0  0  0  0  0  0  0  0  0  0  0  0
   -4.8192    1.2567    0.0000 C   0  0  0  0  0  0  0  0  0  0  0  0
   -5.6635    2.4965    0.0000 C   0  0  0  0  0  0  0  0  0  0  0  0
   -7.1594    2.3853    0.0000 C   0  0  0  0  0  0  0  0  0  0  0  0
   -7.8110    1.0342    0.0000 C   0  0  0  0  0  0  0  0  0  0  0  0
   -6.9667   -0.2056    0.0000 C   0  0  0  0  0  0  0  0  0  0  0  0
   -5.4708   -0.0944    0.0000 C   0  0  0  0  0  0  0  0  0  0  0  0
   -2.5341    2.6435    0.0000 C   0  0  0  0  0  0  0  0  0  0  0  0
   -1.0771    2.2871    0.0000 C   0  0  0  0  0  0  0  0  0  0  0  0
    0.2640   -1.4973    0.0000 C   0  0  0  0  0  0  0  0  0  0  0  0
   -1.0572   -2.2074    0.0000 C   0  0  0  0  0  0  0  0  0  0  0  0
   -1.1030   -3.7067    0.0000 C   0  0  0  0  0  0  0  0  0  0  0  0
    0.1726   -4.4959    0.0000 C   0  0  0  0  0  0  0  0  0  0  0  0
    0.1269   -5.9952    0.0000 N   0  0  0  0  0  0  0  0  0  0  0  0
   -1.1944   -6.7053    0.0000 C   0  0  0  0  0  0  0  0  0  0  0  0
    1.4025   -6.7845    0.0000 C   0  0  0  0  0  0  0  0  0  0  0  0
    1.4939   -3.7859    0.0000 C   0  0  0  0  0  0  0  0  0  0  0  0
    1.5396   -2.2865    0.0000 C   0  0  0  0  0  0  0  0  0  0  0  0
    2.8609   -1.5765    0.0000 N   0  0  0  0  0  0  0  0  0  0  0  0
    4.1365   -2.3657    0.0000 C   0  0  0  0  0  0  0  0  0  0  0  0
    3.0773   -0.8093    0.0000 C   0  0  0  0  0  0  0  0  0  0  0  0
  1  2  1  0
  2  3  2  0
  3  4  1  0
  4  5  2  0
  5  6  1  0
  6  7  1  0
  6  8  1  0
  5  9  1  0
  9 10  2  0
 10 11  1  0
 11 12  1  0
 11 13  1  0
  1 14  1  0
 14 15  2  0
 15 16  1  0
 16 17  1  0
 17 18  2  0
 18 19  1  0
 19 20  2  0
 20 21  1  0
 21 22  2  0
 16 23  1  0
 23 24  2  0
  1 25  1  0
 25 26  2  0
 26 27  1  0
 27 28  2  0
 28 29  1  0
 29 30  1  0
 29 31  1  0
 28 32  1  0
 32 33  2  0
 33 34  1  0
 34 35  1  0
 34 36  1  0
 10  2  1  0
 24 14  1  0
 33 25  1  0
 22 17  1  0
M  END
$$$$
Molecule_83
     RDKit          2D

 42 46  0  0  0  0  0  0  0  0999 V2000
    1.1197   -0.1957    0.0000 P   0  0  0  0  0  0  0  0  0  0  0  0
    1.8438    1.1180    0.0000 C   0  0  0  0  0  0  0  0  0  0  0  0
    3.3435    1.1477    0.0000 C   0  0  0  0  0  0  0  0  0  0  0  0
    4.0676    2.4614    0.0000 C   0  0  0  0  0  0  0  0  0  0  0  0
    3.2920    3.7453    0.0000 C   0  0  0  0  0  0  0  0  0  0  0  0
    4.0160    5.0590    0.0000 N   0  0  0  0  0  0  0  0  0  0  0  0
    5.5157    5.0887    0.0000 C   0  0  0  0  0  0  0  0  0  0  0  0
    3.2404    6.3429    0.0000 C   0  0  0  0  0  0  0  0  0  0  0  0
    1.7923    3.7155    0.0000 C   0  0  0  0  0  0  0  0  0  0  0  0
    1.0682    2.4019    0.0000 C   0  0  0  0  0  0  0  0  0  0  0  0
   -0.4315    2.3721    0.0000 N   0  0  0  0  0  0  0  0  0  0  0  0
   -1.2072    3.6560    0.0000 C   0  0  0  0  0  0  0  0  0  0  0  0
   -1.1010    1.6508    0.0000 C   0  0  0  0  0  0  0  0  0  0  0  0
   -0.3800   -0.2255    0.0000 C   0  0  0  0  0  0  0  0  0  0  0  0
   -1.2374   -1.4563    0.0000 N   0  0  0  0  0  0  0  0  0  0  0  0
   -2.6729   -1.0211    0.0000 N   0  0  0  0  0  0  0  0  0  0  0  0
   -3.8687   -1.9267    0.0000 C   0  0  0  0  0  0  0  0  0  0  0  0
   -5.2508   -1.3440    0.0000 C   0  0  0  0  0  0  0  0  0  0  0  0
   -6.4466   -2.2495    0.0000 C   0  0  0  0  0  0  0  0  0  0  0  0
   -6.2602   -3.7379    0.0000 C   0  0  0  0  0  0  0  0  0  0  0  0
   -4.8781   -4.3207    0.0000 C   0  0  0  0  0  0  0  0  0  0  0  0
   -3.6823   -3.4151    0.0000 C   0  0  0  0  0  0  0  0  0  0  0  0
   -2.7027    0.4786    0.0000 C   0  0  0  0  0  0  0  0  0  0  0  0
   -3.9334    1.3360    0.0000 C   0  0  0  0  0  0  0  0  0  0  0  0
   -3.8063    2.8306    0.0000 C   0  0  0  0  0  0  0  0  0  0  0  0
   -5.0371    3.6880    0.0000 C   0  0  0  0  0  0  0  0  0  0  0  0
   -6.3950    3.0508    0.0000 C   0  0  0  0  0  0  0  0  0  0  0  0
   -6.5222    1.5562    0.0000 C   0  0  0  0  0  0  0  0  0  0  0  0
   -5.2914    0.6988    0.0000 C   0  0  0  0  0  0  0  0  0  0  0  0
   -1.2855    0.9703    0.0000 C   0  0  0  0  0  0  0  0  0  0  0  0
    1.8954   -1.4796    0.0000 C   0  0  0  0  0  0  0  0  0  0  0  0
    1.1713   -2.7933    0.0000 C   0  0  0  0  0  0  0  0  0  0  0  0
    1.9469   -4.0772    0.0000 C   0  0  0  0  0  0  0  0  0  0  0  0
    3.4467   -4.0474    0.0000 C   0  0  0  0  0  0  0  0  0  0  0  0
    4.2223   -5.3313    0.0000 N   0  0  0  0  0  0  0  0  0  0  0  0
    3.4982   -6.6450    0.0000 C   0  0  0  0  0  0  0  0  0  0  0  0
    5.7220   -5.3015    0.0000 C   0  0  0  0  0  0  0  0  0  0  0  0
    4.1707   -2.7337    0.0000 C   0  0  0  0  0  0  0  0  0  0  0  0
    3.3951   -1.4498    0.0000 C   0  0  0  0  0  0  0  0  0  0  0  0
    4.1192   -0.1362    0.0000 N   0  0  0  0  0  0  0  0  0  0  0  0
    5.6189   -0.1064    0.0000 C   0  0  0  0  0  0  0  0  0  0  0  0
    3.8843    0.6256    0.0000 C   0  0  0  0  0  0  0  0  0  0  0  0
  1  2  1  0
  2  3  2  0
  3  4  1  0
  4  5  2  0
  5  6  1  0
  6  7  1  0
  6  8  1  0
  5  9  1  0
  9 10  2  0
 10 11  1  0
 11 12  1  0
 11 13  1  0
  1 14  1  0
 14 15  2  0
 15 16  1  0
 16 17  1  0
 17 18  2  0
 18 19  1  0
 19 20  2  0
 20 21  1  0
 21 22  2  0
 16 23  1  0
 23 24  1  0
 24 25  2  0
 25 26  1  0
 26 27  2  0
 27 28  1  0
 28 29  2  0
 23 30  2  0
  1 31  1  0
 31 32  2  0
 32 33  1  0
 33 34  2  0
 34 35  1  0
 35 36  1  0
 35 37  1  0
 34 38  1  0
 38 39  2  0
 39 40  1  0
 40 41  1  0
 40 42  1  0
 10  2  1  0
 30 14  1  0
 39 31  1  0
 22 17  1  0
 29 24  1  0
M  END
$$$$
Molecule_84
     RDKit          2D

 25 28  0  0  0  0  0  0  0  0999 V2000
    0.9525   -0.0000    0.0000 P   0  0  0  0  0  0  0  0  0  0  0  0
    2.3698    0.4910    0.0000 C   0  0  0  0  0  0  0  0  0  0  0  0
    3.5037   -0.4910    0.0000 C   0  0  0  0  0  0  0  0  0  0  0  0
    4.9211   -0.0000    0.0000 C   0  0  0  0  0  0  0  0  0  0  0  0
    5.2046    1.4730    0.0000 C   0  0  0  0  0  0  0  0  0  0  0  0
    4.0707    2.4550    0.0000 C   0  0  0  0  0  0  0  0  0  0  0  0
    2.6533    1.9640    0.0000 C   0  0  0  0  0  0  0  0  0  0  0  0
    0.6690   -1.4730    0.0000 C   0  0  0  0  0  0  0  0  0  0  0  0
    1.8029   -2.4550    0.0000 C   0  0  0  0  0  0  0  0  0  0  0  0
    1.5194   -3.9279    0.0000 C   0  0  0  0  0  0  0  0  0  0  0  0
    0.1021   -4.4189    0.0000 C   0  0  0  0  0  0  0  0  0  0  0  0
   -1.0318   -3.4369    0.0000 C   0  0  0  0  0  0  0  0  0  0  0  0
   -0.7484   -1.9640    0.0000 C   0  0  0  0  0  0  0  0  0  0  0  0
   -1.8823   -0.9820    0.0000 N   0  0  0  0  0  0  0  0  0  0  0  0
   -3.2996   -1.4730    0.0000 C   0  0  0  0  0  0  0  0  0  0  0  0
   -4.4335   -0.4910    0.0000 C   0  0  0  0  0  0  0  0  0  0  0  0
   -4.1500    0.9820    0.0000 C   0  0  0  0  0  0  0  0  0  0  0  0
   -2.7327    1.4730    0.0000 C   0  0  0  0  0  0  0  0  0  0  0  0
   -1.5988    0.4910    0.0000 C   0  0  0  0  0  0  0  0  0  0  0  0
   -0.1814    0.9820    0.0000 C   0  0  0  0  0  0  0  0  0  0  0  0
    0.1021    2.4550    0.0000 C   0  0  0  0  0  0  0  0  0  0  0  0
   -1.0318    3.4369    0.0000 C   0  0  0  0  0  0  0  0  0  0  0  0
   -2.4492    2.9459    0.0000 C   0  0  0  0  0  0  0  0  0  0  0  0
   -2.7327    1.4730    0.0000 C   0  0  0  0  0  0  0  0  0  0  0  0
   -1.5988    0.4910    0.0000 C   0  0  0  0  0  0  0  0  0  0  0  0
  1  2  1  0
  2  3  2  0
  3  4  1  0
  4  5  2  0
  5  6  1  0
  6  7  2  0
  1  8  1  0
  8  9  2  0
  9 10  1  0
 10 11  2  0
 11 12  1  0
 12 13  2  0
 13 14  1  0
 14 15  1  0
 15 16  1  0
 16 17  1  0
 17 18  1  0
 18 19  1  0
  1 20  1  0
 20 21  2  0
 21 22  1  0
 22 23  2  0
 23 24  1  0
 24 25  2  0
  7  2  1  0
 13  8  1  0
 19 14  1  0
 25 20  1  0
M  END
$$$$
Molecule_85
     RDKit          2D

 36 41  0  0  0  0  0  0  0  0999 V2000
    1.1367    0.9330    0.0000 P   0  0  0  0  0  0  0  0  0  0  0  0
    2.6329    0.8265    0.0000 C   0  0  0  0  0  0  0  0  0  0  0  0
    3.4733    2.0690    0.0000 C   0  0  0  0  0  0  0  0  0  0  0  0
    4.9695    1.9625    0.0000 C   0  0  0  0  0  0  0  0  0  0  0  0
    5.6254    0.6135    0.0000 C   0  0  0  0  0  0  0  0  0  0  0  0
    4.7850   -0.6290    0.0000 C   0  0  0  0  0  0  0  0  0  0  0  0
    3.2888   -0.5225    0.0000 C   0  0  0  0  0  0  0  0  0  0  0  0
    0.2964   -0.3095    0.0000 C   0  0  0  0  0  0  0  0  0  0  0  0
    0.8076   -1.7197    0.0000 C   0  0  0  0  0  0  0  0  0  0  0  0
    2.2490   -2.1350    0.0000 C   0  0  0  0  0  0  0  0  0  0  0  0
    2.6101   -3.5909    0.0000 C   0  0  0  0  0  0  0  0  0  0  0  0
    4.0514   -4.0061    0.0000 C   0  0  0  0  0  0  0  0  0  0  0  0
    5.1318   -2.9655    0.0000 C   0  0  0  0  0  0  0  0  0  0  0  0
    4.7707   -1.5096    0.0000 C   0  0  0  0  0  0  0  0  0  0  0  0
    3.3293   -1.0943    0.0000 C   0  0  0  0  0  0  0  0  0  0  0  0
   -0.3755   -2.6417    0.0000 N   0  0  0  0  0  0  0  0  0  0  0  0
   -1.6180   -1.8014    0.0000 N   0  0  0  0  0  0  0  0  0  0  0  0
   -3.0282   -2.3126    0.0000 C   0  0  0  0  0  0  0  0  0  0  0  0
   -4.1761   -1.3470    0.0000 C   0  0  0  0  0  0  0  0  0  0  0  0
   -5.5863   -1.8583    0.0000 C   0  0  0  0  0  0  0  0  0  0  0  0
   -5.8486   -3.3352    0.0000 C   0  0  0  0  0  0  0  0  0  0  0  0
   -4.7007   -4.3008    0.0000 C   0  0  0  0  0  0  0  0  0  0  0  0
   -3.2905   -3.7895    0.0000 C   0  0  0  0  0  0  0  0  0  0  0  0
   -1.2028   -0.3600    0.0000 C   0  0  0  0  0  0  0  0  0  0  0  0
   -2.1248    0.8232    0.0000 C   0  0  0  0  0  0  0  0  0  0  0  0
   -1.5611    2.2132    0.0000 C   0  0  0  0  0  0  0  0  0  0  0  0
   -2.4832    3.3964    0.0000 C   0  0  0  0  0  0  0  0  0  0  0  0
   -3.9688    3.1895    0.0000 C   0  0  0  0  0  0  0  0  0  0  0  0
   -4.5325    1.7994    0.0000 C   0  0  0  0  0  0  0  0  0  0  0  0
   -3.6105    0.6163    0.0000 C   0  0  0  0  0  0  0  0  0  0  0  0
    0.4808    2.2820    0.0000 C   0  0  0  0  0  0  0  0  0  0  0  0
    1.3212    3.5245    0.0000 C   0  0  0  0  0  0  0  0  0  0  0  0
    0.6653    4.8735    0.0000 C   0  0  0  0  0  0  0  0  0  0  0  0
   -0.8309    4.9800    0.0000 C   0  0  0  0  0  0  0  0  0  0  0  0
   -1.6712    3.7375    0.0000 C   0  0  0  0  0  0  0  0  0  0  0  0
   -1.0154    2.3885    0.0000 C   0  0  0  0  0  0  0  0  0  0  0  0
  1  2  1  0
  2  3  2  0
  3  4  1  0
  4  5  2  0
  5  6  1  0
  6  7  2  0
  1  8  1  0
  8  9  1  0
  9 10  1  0
 10 11  2  0
 11 12  1  0
 12 13  2  0
 13 14  1  0
 14 15  2  0
  9 16  2  0
 16 17  1  0
 17 18  1  0
 18 19  2  0
 19 20  1  0
 20 21  2  0
 21 22  1  0
 22 23  2  0
 17 24  1  0
 24 25  1  0
 25 26  2  0
 26 27  1  0
 27 28  2  0
 28 29  1  0
 29 30  2  0
  1 31  1  0
 31 32  2  0
 32 33  1  0
 33 34  2  0
 34 35  1  0
 35 36  2  0
  7  2  1  0
 24  8  2  0
 30 25  1  0
 36 31  1  0
 15 10  1  0
 23 18  1  0
M  END
$$$$
Molecule_86
     RDKit          2D

 38 42  0  0  0  0  0  0  0  0999 V2000
    0.0651    0.2365    0.0000 P   0  0  0  0  0  0  0  0  0  0  0  0
   -0.3101    1.6888    0.0000 C   0  0  0  0  0  0  0  0  0  0  0  0
    0.7600    2.7399    0.0000 C   0  0  0  0  0  0  0  0  0  0  0  0
    0.3847    4.1922    0.0000 C   0  0  0  0  0  0  0  0  0  0  0  0
   -1.0606    4.5934    0.0000 C   0  0  0  0  0  0  0  0  0  0  0  0
   -2.1307    3.5423    0.0000 C   0  0  0  0  0  0  0  0  0  0  0  0
   -3.5761    3.9435    0.0000 O   0  0  0  0  0  0  0  0  0  0  0  0
   -3.9513    5.3958    0.0000 C   0  0  0  0  0  0  0  0  0  0  0  0
   -5.3967    5.7969    0.0000 C   0  0  0  0  0  0  0  0  0  0  0  0
   -2.8812    6.4469    0.0000 C   0  0  0  0  0  0  0  0  0  0  0  0
   -1.7555    2.0900    0.0000 C   0  0  0  0  0  0  0  0  0  0  0  0
    1.5105   -0.1647    0.0000 N   0  0  0  0  0  0  0  0  0  0  0  0
    2.6846    0.7688    0.0000 N   0  0  0  0  0  0  0  0  0  0  0  0
    3.9352   -0.0594    0.0000 C   0  0  0  0  0  0  0  0  0  0  0  0
    5.3403    0.4656    0.0000 C   0  0  0  0  0  0  0  0  0  0  0  0
    6.4976   -0.4888    0.0000 C   0  0  0  0  0  0  0  0  0  0  0  0
    7.9027    0.0362    0.0000 C   0  0  0  0  0  0  0  0  0  0  0  0
    8.1506    1.5156    0.0000 C   0  0  0  0  0  0  0  0  0  0  0  0
    6.9934    2.4700    0.0000 C   0  0  0  0  0  0  0  0  0  0  0  0
    5.5883    1.9450    0.0000 C   0  0  0  0  0  0  0  0  0  0  0  0
    3.5340   -1.5048    0.0000 C   0  0  0  0  0  0  0  0  0  0  0  0
    2.0354   -1.5698    0.0000 C   0  0  0  0  0  0  0  0  0  0  0  0
    1.2073   -2.8205    0.0000 C   0  0  0  0  0  0  0  0  0  0  0  0
    1.8763   -4.1630    0.0000 C   0  0  0  0  0  0  0  0  0  0  0  0
    1.0481   -5.4137    0.0000 C   0  0  0  0  0  0  0  0  0  0  0  0
   -0.4491   -5.3218    0.0000 C   0  0  0  0  0  0  0  0  0  0  0  0
   -1.1181   -3.9792    0.0000 C   0  0  0  0  0  0  0  0  0  0  0  0
   -0.2899   -2.7286    0.0000 C   0  0  0  0  0  0  0  0  0  0  0  0
   -1.0050   -0.8147    0.0000 C   0  0  0  0  0  0  0  0  0  0  0  0
   -0.6298   -2.2670    0.0000 C   0  0  0  0  0  0  0  0  0  0  0  0
   -1.6999   -3.3181    0.0000 C   0  0  0  0  0  0  0  0  0  0  0  0
   -3.1452   -2.9169    0.0000 C   0  0  0  0  0  0  0  0  0  0  0  0
   -3.5205   -1.4646    0.0000 C   0  0  0  0  0  0  0  0  0  0  0  0
   -4.9658   -1.0634    0.0000 O   0  0  0  0  0  0  0  0  0  0  0  0
   -6.0360   -2.1145    0.0000 C   0  0  0  0  0  0  0  0  0  0  0  0
   -7.4813   -1.7133    0.0000 C   0  0  0  0  0  0  0  0  0  0  0  0
   -5.6607   -3.5668    0.0000 C   0  0  0  0  0  0  0  0  0  0  0  0
   -2.4504   -0.4135    0.0000 C   0  0  0  0  0  0  0  0  0  0  0  0
  1  2  1  0
  2  3  2  0
  3  4  1  0
  4  5  2  0
  5  6  1  0
  6  7  1  0
  7  8  1  0
  8  9  1  0
  8 10  1  0
  6 11  2  0
  1 12  1  0
 12 13  1  0
 13 14  2  0
 14 15  1  0
 15 16  2  0
 16 17  1  0
 17 18  2  0
 18 19  1  0
 19 20  2  0
 14 21  1  0
 21 22  2  0
 22 23  1  0
 23 24  2  0
 24 25  1  0
 25 26  2  0
 26 27  1  0
 27 28  2  0
  1 29  1  0
 29 30  2  0
 30 31  1  0
 31 32  2  0
 32 33  1  0
 33 34  1  0
 34 35  1  0
 35 36  1  0
 35 37  1  0
 33 38  2  0
 11  2  1  0
 22 12  1  0
 28 23  1  0
 38 29  1  0
 20 15  1  0
M  END
$$$$
Molecule_87
     RDKit          2D

 34 36  0  0  0  0  0  0  0  0999 V2000
   -0.1204    0.3080    0.0000 P   0  0  0  0  0  0  0  0  0  0  0  0
    0.9107    1.3974    0.0000 C   0  0  0  0  0  0  0  0  0  0  0  0
    2.3697    1.0491    0.0000 C   0  0  0  0  0  0  0  0  0  0  0  0
    2.7976   -0.3885    0.0000 O   0  0  0  0  0  0  0  0  0  0  0  0
    4.2566   -0.7368    0.0000 C   0  0  0  0  0  0  0  0  0  0  0  0
    4.6845   -2.1745    0.0000 C   0  0  0  0  0  0  0  0  0  0  0  0
    3.4009    2.1385    0.0000 C   0  0  0  0  0  0  0  0  0  0  0  0
    2.9730    3.5762    0.0000 C   0  0  0  0  0  0  0  0  0  0  0  0
    1.5140    3.9245    0.0000 C   0  0  0  0  0  0  0  0  0  0  0  0
    0.4828    2.8351    0.0000 C   0  0  0  0  0  0  0  0  0  0  0  0
   -0.9762    3.1834    0.0000 O   0  0  0  0  0  0  0  0  0  0  0  0
   -1.4041    4.6211    0.0000 C   0  0  0  0  0  0  0  0  0  0  0  0
   -2.8631    4.9693    0.0000 C   0  0  0  0  0  0  0  0  0  0  0  0
   -1.5794    0.6563    0.0000 C   0  0  0  0  0  0  0  0  0  0  0  0
   -2.0073    2.0940    0.0000 C   0  0  0  0  0  0  0  0  0  0  0  0
   -3.4663    2.4423    0.0000 C   0  0  0  0  0  0  0  0  0  0  0  0
   -4.4974    1.3529    0.0000 C   0  0  0  0  0  0  0  0  0  0  0  0
   -4.0695   -0.0848    0.0000 C   0  0  0  0  0  0  0  0  0  0  0  0
   -2.6105   -0.4331    0.0000 C   0  0  0  0  0  0  0  0  0  0  0  0
   -2.1826   -1.8708    0.0000 N   0  0  0  0  0  0  0  0  0  0  0  0
   -3.4467   -2.6783    0.0000 C   0  0  0  0  0  0  0  0  0  0  0  0
   -0.8513   -2.5617    0.0000 C   0  0  0  0  0  0  0  0  0  0  0  0
    0.3075   -1.1297    0.0000 C   0  0  0  0  0  0  0  0  0  0  0  0
    1.7665   -1.4779    0.0000 C   0  0  0  0  0  0  0  0  0  0  0  0
    2.7976   -0.3885    0.0000 O   0  0  0  0  0  0  0  0  0  0  0  0
    4.2566   -0.7368    0.0000 C   0  0  0  0  0  0  0  0  0  0  0  0
    5.2877    0.3526    0.0000 C   0  0  0  0  0  0  0  0  0  0  0  0
    2.1944   -2.9156    0.0000 C   0  0  0  0  0  0  0  0  0  0  0  0
    1.1633   -4.0050    0.0000 C   0  0  0  0  0  0  0  0  0  0  0  0
   -0.2958   -3.6567    0.0000 C   0  0  0  0  0  0  0  0  0  0  0  0
   -0.7236   -2.2190    0.0000 C   0  0  0  0  0  0  0  0  0  0  0  0
   -2.1826   -1.8708    0.0000 O   0  0  0  0  0  0  0  0  0  0  0  0
   -3.2138   -2.9602    0.0000 C   0  0  0  0  0  0  0  0  0  0  0  0
   -4.6728   -2.6119    0.0000 C   0  0  0  0  0  0  0  0  0  0  0  0
  1  2  1  0
  2  3  2  0
  3  4  1  0
  4  5  1  0
  5  6  1  0
  3  7  1  0
  7  8  2  0
  8  9  1  0
  9 10  2  0
 10 11  1  0
 11 12  1  0
 12 13  1  0
  1 14  1  0
 14 15  2  0
 15 16  1  0
 16 17  2  0
 17 18  1  0
 18 19  2  0
 19 20  1  0
 20 21  1  0
 20 22  1  0
  1 23  1  0
 23 24  2  0
 24 25  1  0
 25 26  1  0
 26 27  1  0
 24 28  1  0
 28 29  2  0
 29 30  1  0
 30 31  2  0
 31 32  1  0
 32 33  1  0
 33 34  1  0
 10  2  1  0
 19 14  1  0
 31 23  1  0
M  END
$$$$
Molecule_88
     RDKit          2D

 42 48  0  0  0  0  0  0  0  0999 V2000
    0.9540   -0.0105    0.0000 P   0  0  0  0  0  0  0  0  0  0  0  0
    1.2167    1.4663    0.0000 C   0  0  0  0  0  0  0  0  0  0  0  0
    2.6270    1.9772    0.0000 C   0  0  0  0  0  0  0  0  0  0  0  0
    2.8897    3.4540    0.0000 C   0  0  0  0  0  0  0  0  0  0  0  0
    1.7421    4.4199    0.0000 C   0  0  0  0  0  0  0  0  0  0  0  0
    0.3318    3.9090    0.0000 C   0  0  0  0  0  0  0  0  0  0  0  0
    0.0691    2.4322    0.0000 C   0  0  0  0  0  0  0  0  0  0  0  0
   -1.3413    1.9213    0.0000 N   0  0  0  0  0  0  0  0  0  0  0  0
   -2.4889    2.8872    0.0000 C   0  0  0  0  0  0  0  0  0  0  0  0
   -3.8992    2.3763    0.0000 C   0  0  0  0  0  0  0  0  0  0  0  0
   -4.1619    0.8995    0.0000 C   0  0  0  0  0  0  0  0  0  0  0  0
   -3.0143   -0.0664    0.0000 C   0  0  0  0  0  0  0  0  0  0  0  0
   -1.6040    0.4445    0.0000 C   0  0  0  0  0  0  0  0  0  0  0  0
   -0.4564   -0.5214    0.0000 C   0  0  0  0  0  0  0  0  0  0  0  0
   -0.8720   -1.9627    0.0000 C   0  0  0  0  0  0  0  0  0  0  0  0
    0.0497   -3.1461    0.0000 C   0  0  0  0  0  0  0  0  0  0  0  0
   -0.5143   -4.5360    0.0000 C   0  0  0  0  0  0  0  0  0  0  0  0
    0.4074   -5.7195    0.0000 C   0  0  0  0  0  0  0  0  0  0  0  0
    1.8931   -5.5129    0.0000 C   0  0  0  0  0  0  0  0  0  0  0  0
    2.4571   -4.1230    0.0000 C   0  0  0  0  0  0  0  0  0  0  0  0
    1.5354   -2.9396    0.0000 C   0  0  0  0  0  0  0  0  0  0  0  0
   -2.3712   -2.0128    0.0000 N   0  0  0  0  0  0  0  0  0  0  0  0
   -2.8821   -0.6025    0.0000 N   0  0  0  0  0  0  0  0  0  0  0  0
   -4.3233   -0.1868    0.0000 C   0  0  0  0  0  0  0  0  0  0  0  0
   -4.6840    1.2692    0.0000 C   0  0  0  0  0  0  0  0  0  0  0  0
   -6.1253    1.6848    0.0000 C   0  0  0  0  0  0  0  0  0  0  0  0
   -7.2059    0.6444    0.0000 C   0  0  0  0  0  0  0  0  0  0  0  0
   -6.8452   -0.8115    0.0000 C   0  0  0  0  0  0  0  0  0  0  0  0
   -5.4039   -1.2272    0.0000 C   0  0  0  0  0  0  0  0  0  0  0  0
   -1.6986    0.3192    0.0000 C   0  0  0  0  0  0  0  0  0  0  0  0
    2.1016   -0.9765    0.0000 C   0  0  0  0  0  0  0  0  0  0  0  0
    1.8388   -2.4533    0.0000 C   0  0  0  0  0  0  0  0  0  0  0  0
    2.9865   -3.4192    0.0000 C   0  0  0  0  0  0  0  0  0  0  0  0
    4.3968   -2.9083    0.0000 C   0  0  0  0  0  0  0  0  0  0  0  0
    4.6595   -1.4315    0.0000 C   0  0  0  0  0  0  0  0  0  0  0  0
    3.5119   -0.4656    0.0000 C   0  0  0  0  0  0  0  0  0  0  0  0
    3.7746    1.0112    0.0000 N   0  0  0  0  0  0  0  0  0  0  0  0
    5.1849    1.5221    0.0000 C   0  0  0  0  0  0  0  0  0  0  0  0
    5.4476    2.9990    0.0000 C   0  0  0  0  0  0  0  0  0  0  0  0
    4.3000    3.9649    0.0000 C   0  0  0  0  0  0  0  0  0  0  0  0
    2.8897    3.4540    0.0000 C   0  0  0  0  0  0  0  0  0  0  0  0
    2.6270    1.9772    0.0000 C   0  0  0  0  0  0  0  0  0  0  0  0
  1  2  1  0
  2  3  2  0
  3  4  1  0
  4  5  2  0
  5  6  1  0
  6  7  2  0
  7  8  1  0
  8  9  1  0
  9 10  1  0
 10 11  1  0
 11 12  1  0
 12 13  1  0
  1 14  1  0
 14 15  1  0
 15 16  1  0
 16 17  2  0
 17 18  1  0
 18 19  2  0
 19 20  1  0
 20 21  2  0
 15 22  2  0
 22 23  1  0
 23 24  1  0
 24 25  2  0
 25 26  1  0
 26 27  2  0
 27 28  1  0
 28 29  2  0
 23 30  1  0
  1 31  1  0
 31 32  2  0
 32 33  1  0
 33 34  2  0
 34 35  1  0
 35 36  2  0
 36 37  1  0
 37 38  1  0
 38 39  1  0
 39 40  1  0
 40 41  1  0
 41 42  1  0
  7  2  1  0
 13  8  1  0
 30 14  2  0
 36 31  1  0
 42 37  1  0
 21 16  1  0
 29 24  1  0
M  END
$$$$
Molecule_89
     RDKit          2D

 36 41  0  0  0  0  0  0  0  0999 V2000
    0.6974   -0.4544    0.0000 P   0  0  0  0  0  0  0  0  0  0  0  0
    1.7944    0.5687    0.0000 C   0  0  0  0  0  0  0  0  0  0  0  0
    3.2289    0.1302    0.0000 C   0  0  0  0  0  0  0  0  0  0  0  0
    4.3259    1.1532    0.0000 C   0  0  0  0  0  0  0  0  0  0  0  0
    3.9884    2.6148    0.0000 C   0  0  0  0  0  0  0  0  0  0  0  0
    2.5539    3.0533    0.0000 C   0  0  0  0  0  0  0  0  0  0  0  0
    1.4569    2.0302    0.0000 C   0  0  0  0  0  0  0  0  0  0  0  0
    0.0224    2.4687    0.0000 N   0  0  0  0  0  0  0  0  0  0  0  0
   -0.3150    3.9303    0.0000 C   0  0  0  0  0  0  0  0  0  0  0  0
   -1.7495    4.3688    0.0000 C   0  0  0  0  0  0  0  0  0  0  0  0
   -2.8465    3.3457    0.0000 C   0  0  0  0  0  0  0  0  0  0  0  0
   -2.5090    1.8842    0.0000 C   0  0  0  0  0  0  0  0  0  0  0  0
   -1.0745    1.4457    0.0000 C   0  0  0  0  0  0  0  0  0  0  0  0
   -0.7371   -0.0159    0.0000 C   0  0  0  0  0  0  0  0  0  0  0  0
   -1.9350   -0.9186    0.0000 N   0  0  0  0  0  0  0  0  0  0  0  0
   -3.1637   -0.0583    0.0000 N   0  0  0  0  0  0  0  0  0  0  0  0
   -4.5820   -0.5467    0.0000 C   0  0  0  0  0  0  0  0  0  0  0  0
   -5.7141    0.4373    0.0000 C   0  0  0  0  0  0  0  0  0  0  0  0
   -7.1324   -0.0511    0.0000 C   0  0  0  0  0  0  0  0  0  0  0  0
   -7.4185   -1.5235    0.0000 C   0  0  0  0  0  0  0  0  0  0  0  0
   -6.2864   -2.5076    0.0000 C   0  0  0  0  0  0  0  0  0  0  0  0
   -4.8682   -2.0192    0.0000 C   0  0  0  0  0  0  0  0  0  0  0  0
   -2.7252    1.3762    0.0000 C   0  0  0  0  0  0  0  0  0  0  0  0
   -1.2255    1.4024    0.0000 C   0  0  0  0  0  0  0  0  0  0  0  0
    1.0349   -1.9159    0.0000 C   0  0  0  0  0  0  0  0  0  0  0  0
   -0.0621   -2.9389    0.0000 C   0  0  0  0  0  0  0  0  0  0  0  0
    0.2754   -4.4005    0.0000 C   0  0  0  0  0  0  0  0  0  0  0  0
    1.7099   -4.8390    0.0000 C   0  0  0  0  0  0  0  0  0  0  0  0
    2.8069   -3.8159    0.0000 C   0  0  0  0  0  0  0  0  0  0  0  0
    2.4694   -2.3544    0.0000 C   0  0  0  0  0  0  0  0  0  0  0  0
    3.5664   -1.3313    0.0000 N   0  0  0  0  0  0  0  0  0  0  0  0
    5.0008   -1.7698    0.0000 C   0  0  0  0  0  0  0  0  0  0  0  0
    6.0978   -0.7468    0.0000 C   0  0  0  0  0  0  0  0  0  0  0  0
    5.7603    0.7147    0.0000 C   0  0  0  0  0  0  0  0  0  0  0  0
    4.3259    1.1532    0.0000 C   0  0  0  0  0  0  0  0  0  0  0  0
    3.2289    0.1302    0.0000 C   0  0  0  0  0  0  0  0  0  0  0  0
  1  2  1  0
  2  3  2  0
  3  4  1  0
  4  5  2  0
  5  6  1  0
  6  7  2  0
  7  8  1  0
  8  9  1  0
  9 10  1  0
 10 11  1  0
 11 12  1  0
 12 13  1  0
  1 14  1  0
 14 15  2  0
 15 16  1  0
 16 17  1  0
 17 18  2  0
 18 19  1  0
 19 20  2  0
 20 21  1  0
 21 22  2  0
 16 23  1  0
 23 24  2  0
  1 25  1  0
 25 26  2  0
 26 27  1  0
 27 28  2  0
 28 29  1  0
 29 30  2  0
 30 31  1  0
 31 32  1  0
 32 33  1  0
 33 34  1  0
 34 35  1  0
 35 36  1  0
  7  2  1  0
 13  8  1  0
 24 14  1  0
 30 25  1  0
 36 31  1  0
 22 17  1  0
M  END
$$$$
Molecule_90
     RDKit          2D

 36 41  0  0  0  0  0  0  0  0999 V2000
    4.5890   -0.0000    0.0000 P   0  0  0  0  0  0  0  0  0  0  0  0
    5.3390    1.2990    0.0000 C   0  0  0  0  0  0  0  0  0  0  0  0
    6.8390    1.2990    0.0000 C   0  0  0  0  0  0  0  0  0  0  0  0
    7.5890    2.5981    0.0000 C   0  0  0  0  0  0  0  0  0  0  0  0
    6.8390    3.8971    0.0000 N   0  0  0  0  0  0  0  0  0  0  0  0
    5.3390    3.8971    0.0000 C   0  0  0  0  0  0  0  0  0  0  0  0
    4.5890    2.5981    0.0000 C   0  0  0  0  0  0  0  0  0  0  0  0
    3.0890   -0.0000    0.0000 C   0  0  0  0  0  0  0  0  0  0  0  0
    2.3390    1.2990    0.0000 C   0  0  0  0  0  0  0  0  0  0  0  0
    0.8390    1.2990    0.0000 C   0  0  0  0  0  0  0  0  0  0  0  0
    0.0890    0.0000    0.0000 C   0  0  0  0  0  0  0  0  0  0  0  0
   -1.4110    0.0000    0.0000 C   0  0  0  0  0  0  0  0  0  0  0  0
   -2.2927   -1.2135    0.0000 C   0  0  0  0  0  0  0  0  0  0  0  0
   -3.7193   -0.7500    0.0000 C   0  0  0  0  0  0  0  0  0  0  0  0
   -4.9328   -1.6317    0.0000 C   0  0  0  0  0  0  0  0  0  0  0  0
   -6.3031   -1.0216    0.0000 C   0  0  0  0  0  0  0  0  0  0  0  0
   -7.5166   -1.9033    0.0000 C   0  0  0  0  0  0  0  0  0  0  0  0
   -7.3598   -3.3950    0.0000 C   0  0  0  0  0  0  0  0  0  0  0  0
   -5.9895   -4.0051    0.0000 C   0  0  0  0  0  0  0  0  0  0  0  0
   -4.7760   -3.1235    0.0000 C   0  0  0  0  0  0  0  0  0  0  0  0
   -3.7193    0.7500    0.0000 N   0  0  0  0  0  0  0  0  0  0  0  0
   -4.9328    1.6317    0.0000 C   0  0  0  0  0  0  0  0  0  0  0  0
   -4.7760    3.1235    0.0000 C   0  0  0  0  0  0  0  0  0  0  0  0
   -5.9895    4.0051    0.0000 C   0  0  0  0  0  0  0  0  0  0  0  0
   -7.3598    3.3950    0.0000 C   0  0  0  0  0  0  0  0  0  0  0  0
   -7.5166    1.9033    0.0000 C   0  0  0  0  0  0  0  0  0  0  0  0
   -6.3031    1.0216    0.0000 C   0  0  0  0  0  0  0  0  0  0  0  0
   -2.2927    1.2135    0.0000 N   0  0  0  0  0  0  0  0  0  0  0  0
    0.8390   -1.2990    0.0000 C   0  0  0  0  0  0  0  0  0  0  0  0
    2.3390   -1.2990    0.0000 C   0  0  0  0  0  0  0  0  0  0  0  0
    5.3390   -1.2990    0.0000 C   0  0  0  0  0  0  0  0  0  0  0  0
    4.5890   -2.5981    0.0000 C   0  0  0  0  0  0  0  0  0  0  0  0
    5.3390   -3.8971    0.0000 C   0  0  0  0  0  0  0  0  0  0  0  0
    6.8390   -3.8971    0.0000 N   0  0  0  0  0  0  0  0  0  0  0  0
    7.5890   -2.5981    0.0000 C   0  0  0  0  0  0  0  0  0  0  0  0
    6.8390   -1.2990    0.0000 C   0  0  0  0  0  0  0  0  0  0  0  0
  1  2  1  0
  2  3  2  0
  3  4  1  0
  4  5  2  0
  5  6  1  0
  6  7  2  0
  1  8  1  0
  8  9  2  0
  9 10  1  0
 10 11  2  0
 11 12  1  0
 12 13  1  0
 13 14  2  0
 14 15  1  0
 15 16  2  0
 16 17  1  0
 17 18  2  0
 18 19  1  0
 19 20  2  0
 14 21  1  0
 21 22  1  0
 22 23  2  0
 23 24  1  0
 24 25  2  0
 25 26  1  0
 26 27  2  0
 21 28  1  0
 11 29  1  0
 29 30  2  0
  1 31  1  0
 31 32  2  0
 32 33  1  0
 33 34  2  0
 34 35  1  0
 35 36  2  0
  7  2  1  0
 30  8  1  0
 36 31  1  0
 28 12  2  0
 20 15  1  0
 27 22  1  0
M  END
$$$$
Molecule_91
     RDKit          2D

 35 37  0  0  0  0  0  0  0  0999 V2000
    0.2356   -0.2491    0.0000 P   0  0  0  0  0  0  0  0  0  0  0  0
    1.6947    0.0984    0.0000 C   0  0  0  0  0  0  0  0  0  0  0  0
    2.7253   -0.9916    0.0000 C   0  0  0  0  0  0  0  0  0  0  0  0
    4.1845   -0.6441    0.0000 C   0  0  0  0  0  0  0  0  0  0  0  0
    4.6131    0.7933    0.0000 C   0  0  0  0  0  0  0  0  0  0  0  0
    3.5826    1.8833    0.0000 C   0  0  0  0  0  0  0  0  0  0  0  0
    4.0113    3.3207    0.0000 O   0  0  0  0  0  0  0  0  0  0  0  0
    5.4705    3.6682    0.0000 C   0  0  0  0  0  0  0  0  0  0  0  0
    5.8991    5.1057    0.0000 C   0  0  0  0  0  0  0  0  0  0  0  0
    6.5010    2.5783    0.0000 C   0  0  0  0  0  0  0  0  0  0  0  0
    2.1234    1.5358    0.0000 C   0  0  0  0  0  0  0  0  0  0  0  0
   -0.1931   -1.6866    0.0000 C   0  0  0  0  0  0  0  0  0  0  0  0
   -1.6523   -2.0341    0.0000 C   0  0  0  0  0  0  0  0  0  0  0  0
   -2.6828   -0.9441    0.0000 O   0  0  0  0  0  0  0  0  0  0  0  0
   -4.1420   -1.2916    0.0000 C   0  0  0  0  0  0  0  0  0  0  0  0
   -5.1726   -0.2017    0.0000 C   0  0  0  0  0  0  0  0  0  0  0  0
   -4.5707   -2.7291    0.0000 C   0  0  0  0  0  0  0  0  0  0  0  0
   -2.0810   -3.4715    0.0000 C   0  0  0  0  0  0  0  0  0  0  0  0
   -1.0504   -4.5615    0.0000 C   0  0  0  0  0  0  0  0  0  0  0  0
    0.4088   -4.2140    0.0000 C   0  0  0  0  0  0  0  0  0  0  0  0
    0.8374   -2.7765    0.0000 C   0  0  0  0  0  0  0  0  0  0  0  0
    2.2966   -2.4290    0.0000 O   0  0  0  0  0  0  0  0  0  0  0  0
    3.3272   -3.5190    0.0000 C   0  0  0  0  0  0  0  0  0  0  0  0
    4.7864   -3.1715    0.0000 C   0  0  0  0  0  0  0  0  0  0  0  0
    2.8985   -4.9564    0.0000 C   0  0  0  0  0  0  0  0  0  0  0  0
   -0.7950    0.8408    0.0000 C   0  0  0  0  0  0  0  0  0  0  0  0
   -0.3663    2.2783    0.0000 C   0  0  0  0  0  0  0  0  0  0  0  0
   -1.3969    3.3682    0.0000 C   0  0  0  0  0  0  0  0  0  0  0  0
   -2.8561    3.0207    0.0000 C   0  0  0  0  0  0  0  0  0  0  0  0
   -3.2847    1.5833    0.0000 C   0  0  0  0  0  0  0  0  0  0  0  0
   -4.7439    1.2358    0.0000 O   0  0  0  0  0  0  0  0  0  0  0  0
   -5.7744    2.3257    0.0000 C   0  0  0  0  0  0  0  0  0  0  0  0
   -7.2336    1.9782    0.0000 C   0  0  0  0  0  0  0  0  0  0  0  0
   -5.3458    3.7632    0.0000 C   0  0  0  0  0  0  0  0  0  0  0  0
   -2.2542    0.4933    0.0000 C   0  0  0  0  0  0  0  0  0  0  0  0
  1  2  1  0
  2  3  2  0
  3  4  1  0
  4  5  2  0
  5  6  1  0
  6  7  1  0
  7  8  1  0
  8  9  1  0
  8 10  1  0
  6 11  2  0
  1 12  1  0
 12 13  2  0
 13 14  1  0
 14 15  1  0
 15 16  1  0
 15 17  1  0
 13 18  1  0
 18 19  2  0
 19 20  1  0
 20 21  2  0
 21 22  1  0
 22 23  1  0
 23 24  1  0
 23 25  1  0
  1 26  1  0
 26 27  2  0
 27 28  1  0
 28 29  2  0
 29 30  1  0
 30 31  1  0
 31 32  1  0
 32 33  1  0
 32 34  1  0
 30 35  2  0
 11  2  1  0
 21 12  1  0
 35 26  1  0
M  END
$$$$
Molecule_92
     RDKit          2D

 37 40  0  0  0  0  0  0  0  0999 V2000
    0.3321    0.5412    0.0000 P   0  0  0  0  0  0  0  0  0  0  0  0
    1.6722   -0.1326    0.0000 C   0  0  0  0  0  0  0  0  0  0  0  0
    1.7587   -1.6301    0.0000 C   0  0  0  0  0  0  0  0  0  0  0  0
    3.0988   -2.3040    0.0000 C   0  0  0  0  0  0  0  0  0  0  0  0
    4.3525   -1.4803    0.0000 C   0  0  0  0  0  0  0  0  0  0  0  0
    5.6926   -2.1541    0.0000 N   0  0  0  0  0  0  0  0  0  0  0  0
    5.7791   -3.6516    0.0000 C   0  0  0  0  0  0  0  0  0  0  0  0
    6.9462   -1.3305    0.0000 C   0  0  0  0  0  0  0  0  0  0  0  0
    4.2659    0.0172    0.0000 C   0  0  0  0  0  0  0  0  0  0  0  0
    2.9258    0.6910    0.0000 C   0  0  0  0  0  0  0  0  0  0  0  0
    2.8393    2.1885    0.0000 N   0  0  0  0  0  0  0  0  0  0  0  0
    4.0929    3.0122    0.0000 C   0  0  0  0  0  0  0  0  0  0  0  0
    2.2349    2.7083    0.0000 C   0  0  0  0  0  0  0  0  0  0  0  0
    0.2456    2.0387    0.0000 C   0  0  0  0  0  0  0  0  0  0  0  0
    1.4992    2.8624    0.0000 C   0  0  0  0  0  0  0  0  0  0  0  0
    1.4127    4.3599    0.0000 C   0  0  0  0  0  0  0  0  0  0  0  0
    0.0725    5.0337    0.0000 C   0  0  0  0  0  0  0  0  0  0  0  0
   -1.1811    4.2101    0.0000 C   0  0  0  0  0  0  0  0  0  0  0  0
   -1.0946    2.7125    0.0000 C   0  0  0  0  0  0  0  0  0  0  0  0
   -2.3482    1.8889    0.0000 N   0  0  0  0  0  0  0  0  0  0  0  0
   -3.6883    2.5627    0.0000 C   0  0  0  0  0  0  0  0  0  0  0  0
   -4.9419    1.7390    0.0000 C   0  0  0  0  0  0  0  0  0  0  0  0
   -4.8554    0.2415    0.0000 C   0  0  0  0  0  0  0  0  0  0  0  0
   -3.5153   -0.4323    0.0000 C   0  0  0  0  0  0  0  0  0  0  0  0
   -2.2617    0.3914    0.0000 C   0  0  0  0  0  0  0  0  0  0  0  0
   -0.9216   -0.2825    0.0000 C   0  0  0  0  0  0  0  0  0  0  0  0
   -2.2617    0.3914    0.0000 C   0  0  0  0  0  0  0  0  0  0  0  0
   -3.5153   -0.4323    0.0000 C   0  0  0  0  0  0  0  0  0  0  0  0
   -3.4288   -1.9298    0.0000 C   0  0  0  0  0  0  0  0  0  0  0  0
   -4.6824   -2.7535    0.0000 N   0  0  0  0  0  0  0  0  0  0  0  0
   -6.0226   -2.0796    0.0000 C   0  0  0  0  0  0  0  0  0  0  0  0
   -4.5959   -4.2510    0.0000 C   0  0  0  0  0  0  0  0  0  0  0  0
   -2.0887   -2.6036    0.0000 C   0  0  0  0  0  0  0  0  0  0  0  0
   -0.8350   -1.7800    0.0000 C   0  0  0  0  0  0  0  0  0  0  0  0
    0.5051   -2.4538    0.0000 N   0  0  0  0  0  0  0  0  0  0  0  0
    0.5916   -3.9513    0.0000 C   0  0  0  0  0  0  0  0  0  0  0  0
    1.9208   -1.9579    0.0000 C   0  0  0  0  0  0  0  0  0  0  0  0
  1  2  1  0
  2  3  2  0
  3  4  1  0
  4  5  2  0
  5  6  1  0
  6  7  1  0
  6  8  1  0
  5  9  1  0
  9 10  2  0
 10 11  1  0
 11 12  1  0
 11 13  1  0
  1 14  1  0
 14 15  2  0
 15 16  1  0
 16 17  2  0
 17 18  1  0
 18 19  2  0
 19 20  1  0
 20 21  1  0
 21 22  1  0
 22 23  1  0
 23 24  1  0
 24 25  1  0
  1 26  1  0
 26 27  2  0
 27 28  1  0
 28 29  2  0
 29 30  1  0
 30 31  1  0
 30 32  1  0
 29 33  1  0
 33 34  2  0
 34 35  1  0
 35 36  1  0
 35 37  1  0
 10  2  1  0
 19 14  1  0
 25 20  1  0
 34 26  1  0
M  END
$$$$
Molecule_93
     RDKit          2D

 37 41  0  0  0  0  0  0  0  0999 V2000
    0.0197   -0.5674    0.0000 P   0  0  0  0  0  0  0  0  0  0  0  0
    0.8372    0.6902    0.0000 C   0  0  0  0  0  0  0  0  0  0  0  0
    2.3352    0.6110    0.0000 C   0  0  0  0  0  0  0  0  0  0  0  0
    3.1527    1.8686    0.0000 C   0  0  0  0  0  0  0  0  0  0  0  0
    2.4723    3.2055    0.0000 C   0  0  0  0  0  0  0  0  0  0  0  0
    0.9744    3.2846    0.0000 C   0  0  0  0  0  0  0  0  0  0  0  0
    0.1569    2.0270    0.0000 C   0  0  0  0  0  0  0  0  0  0  0  0
   -1.3410    2.1062    0.0000 N   0  0  0  0  0  0  0  0  0  0  0  0
   -2.0214    3.4430    0.0000 C   0  0  0  0  0  0  0  0  0  0  0  0
   -3.5193    3.5222    0.0000 C   0  0  0  0  0  0  0  0  0  0  0  0
   -4.3369    2.2646    0.0000 C   0  0  0  0  0  0  0  0  0  0  0  0
   -3.6565    0.9278    0.0000 C   0  0  0  0  0  0  0  0  0  0  0  0
   -2.1586    0.8486    0.0000 C   0  0  0  0  0  0  0  0  0  0  0  0
   -1.4782   -0.4883    0.0000 C   0  0  0  0  0  0  0  0  0  0  0  0
   -2.1586    0.8486    0.0000 C   0  0  0  0  0  0  0  0  0  0  0  0
   -1.3410    2.1062    0.0000 O   0  0  0  0  0  0  0  0  0  0  0  0
    0.1569    2.0270    0.0000 C   0  0  0  0  0  0  0  0  0  0  0  0
    0.6458    3.4451    0.0000 C   0  0  0  0  0  0  0  0  0  0  0  0
   -3.6565    0.9278    0.0000 C   0  0  0  0  0  0  0  0  0  0  0  0
   -4.4740   -0.3299    0.0000 C   0  0  0  0  0  0  0  0  0  0  0  0
   -3.7936   -1.6667    0.0000 C   0  0  0  0  0  0  0  0  0  0  0  0
   -2.2957   -1.7459    0.0000 C   0  0  0  0  0  0  0  0  0  0  0  0
   -1.6154   -3.0827    0.0000 O   0  0  0  0  0  0  0  0  0  0  0  0
   -2.4329   -4.3403    0.0000 C   0  0  0  0  0  0  0  0  0  0  0  0
   -1.7525   -5.6772    0.0000 C   0  0  0  0  0  0  0  0  0  0  0  0
    0.7001   -1.9043    0.0000 C   0  0  0  0  0  0  0  0  0  0  0  0
   -0.1174   -3.1619    0.0000 C   0  0  0  0  0  0  0  0  0  0  0  0
    0.5629   -4.4987    0.0000 C   0  0  0  0  0  0  0  0  0  0  0  0
    2.0608   -4.5779    0.0000 C   0  0  0  0  0  0  0  0  0  0  0  0
    2.8784   -3.3203    0.0000 C   0  0  0  0  0  0  0  0  0  0  0  0
    2.1980   -1.9834    0.0000 C   0  0  0  0  0  0  0  0  0  0  0  0
    3.0155   -0.7258    0.0000 N   0  0  0  0  0  0  0  0  0  0  0  0
    4.5134   -0.8050    0.0000 C   0  0  0  0  0  0  0  0  0  0  0  0
    5.3310    0.4526    0.0000 C   0  0  0  0  0  0  0  0  0  0  0  0
    4.6506    1.7895    0.0000 C   0  0  0  0  0  0  0  0  0  0  0  0
    3.1527    1.8686    0.0000 C   0  0  0  0  0  0  0  0  0  0  0  0
    2.3352    0.6110    0.0000 C   0  0  0  0  0  0  0  0  0  0  0  0
  1  2  1  0
  2  3  2  0
  3  4  1  0
  4  5  2  0
  5  6  1  0
  6  7  2  0
  7  8  1  0
  8  9  1  0
  9 10  1  0
 10 11  1  0
 11 12  1  0
 12 13  1  0
  1 14  1  0
 14 15  2  0
 15 16  1  0
 16 17  1  0
 17 18  1  0
 15 19  1  0
 19 20  2  0
 20 21  1  0
 21 22  2  0
 22 23  1  0
 23 24  1  0
 24 25  1  0
  1 26  1  0
 26 27  2  0
 27 28  1  0
 28 29  2  0
 29 30  1  0
 30 31  2  0
 31 32  1  0
 32 33  1  0
 33 34  1  0
 34 35  1  0
 35 36  1  0
 36 37  1  0
  7  2  1  0
 13  8  1  0
 22 14  1  0
 31 26  1  0
 37 32  1  0
M  END
$$$$
Molecule_94
     RDKit          2D

 35 39  0  0  0  0  0  0  0  0999 V2000
   -0.4471   -0.0241    0.0000 P   0  0  0  0  0  0  0  0  0  0  0  0
   -1.3193    1.1962    0.0000 C   0  0  0  0  0  0  0  0  0  0  0  0
   -0.6986    2.5618    0.0000 C   0  0  0  0  0  0  0  0  0  0  0  0
    0.7943    2.7070    0.0000 O   0  0  0  0  0  0  0  0  0  0  0  0
    0.9388    3.4910    0.0000 C   0  0  0  0  0  0  0  0  0  0  0  0
   -1.5709    3.7821    0.0000 C   0  0  0  0  0  0  0  0  0  0  0  0
   -3.0638    3.6368    0.0000 C   0  0  0  0  0  0  0  0  0  0  0  0
   -3.6845    2.2713    0.0000 C   0  0  0  0  0  0  0  0  0  0  0  0
   -2.8123    1.0510    0.0000 C   0  0  0  0  0  0  0  0  0  0  0  0
   -3.4330   -0.3146    0.0000 O   0  0  0  0  0  0  0  0  0  0  0  0
   -4.9325   -0.2768    0.0000 C   0  0  0  0  0  0  0  0  0  0  0  0
    1.0459    0.1211    0.0000 C   0  0  0  0  0  0  0  0  0  0  0  0
    1.9181   -1.0992    0.0000 C   0  0  0  0  0  0  0  0  0  0  0  0
    1.2975   -2.4647    0.0000 C   0  0  0  0  0  0  0  0  0  0  0  0
    2.1697   -3.6850    0.0000 C   0  0  0  0  0  0  0  0  0  0  0  0
    3.6627   -3.5398    0.0000 C   0  0  0  0  0  0  0  0  0  0  0  0
    4.2834   -2.1742    0.0000 C   0  0  0  0  0  0  0  0  0  0  0  0
    3.4111   -0.9539    0.0000 C   0  0  0  0  0  0  0  0  0  0  0  0
    4.0318    0.4116    0.0000 C   0  0  0  0  0  0  0  0  0  0  0  0
    3.1595    1.6319    0.0000 C   0  0  0  0  0  0  0  0  0  0  0  0
    3.7802    2.9975    0.0000 C   0  0  0  0  0  0  0  0  0  0  0  0
    2.9080    4.2178    0.0000 C   0  0  0  0  0  0  0  0  0  0  0  0
    1.4150    4.0726    0.0000 C   0  0  0  0  0  0  0  0  0  0  0  0
    0.7943    2.7070    0.0000 C   0  0  0  0  0  0  0  0  0  0  0  0
    1.6666    1.4867    0.0000 C   0  0  0  0  0  0  0  0  0  0  0  0
   -1.0678   -1.3897    0.0000 C   0  0  0  0  0  0  0  0  0  0  0  0
   -2.5607   -1.5349    0.0000 C   0  0  0  0  0  0  0  0  0  0  0  0
   -3.4330   -0.3146    0.0000 O   0  0  0  0  0  0  0  0  0  0  0  0
   -4.8971   -0.6407    0.0000 C   0  0  0  0  0  0  0  0  0  0  0  0
   -3.1814   -2.9004    0.0000 C   0  0  0  0  0  0  0  0  0  0  0  0
   -2.3091   -4.1208    0.0000 C   0  0  0  0  0  0  0  0  0  0  0  0
   -0.8162   -3.9755    0.0000 C   0  0  0  0  0  0  0  0  0  0  0  0
   -0.1955   -2.6100    0.0000 C   0  0  0  0  0  0  0  0  0  0  0  0
    1.2975   -2.4647    0.0000 O   0  0  0  0  0  0  0  0  0  0  0  0
    1.8485   -3.8598    0.0000 C   0  0  0  0  0  0  0  0  0  0  0  0
  1  2  1  0
  2  3  2  0
  3  4  1  0
  4  5  1  0
  3  6  1  0
  6  7  2  0
  7  8  1  0
  8  9  2  0
  9 10  1  0
 10 11  1  0
  1 12  1  0
 12 13  1  0
 13 14  2  0
 14 15  1  0
 15 16  2  0
 16 17  1  0
 17 18  2  0
 18 19  1  0
 19 20  2  0
 20 21  1  0
 21 22  2  0
 22 23  1  0
 23 24  2  0
 24 25  1  0
  1 26  1  0
 26 27  2  0
 27 28  1  0
 28 29  1  0
 27 30  1  0
 30 31  2  0
 31 32  1  0
 32 33  2  0
 33 34  1  0
 34 35  1  0
  9  2  1  0
 25 12  2  0
 33 26  1  0
 18 13  1  0
 25 20  1  0
M  END
$$$$
Molecule_95
     RDKit          2D

 36 40  0  0  0  0  0  0  0  0999 V2000
    1.4893   -0.0707    0.0000 P   0  0  0  0  0  0  0  0  0  0  0  0
    1.8945    1.3736    0.0000 C   0  0  0  0  0  0  0  0  0  0  0  0
    3.3478    1.7449    0.0000 C   0  0  0  0  0  0  0  0  0  0  0  0
    4.3960    0.6719    0.0000 O   0  0  0  0  0  0  0  0  0  0  0  0
    5.7932    1.2176    0.0000 C   0  0  0  0  0  0  0  0  0  0  0  0
    3.7529    3.1891    0.0000 C   0  0  0  0  0  0  0  0  0  0  0  0
    2.7047    4.2621    0.0000 C   0  0  0  0  0  0  0  0  0  0  0  0
    1.2514    3.8908    0.0000 C   0  0  0  0  0  0  0  0  0  0  0  0
    0.8463    2.4466    0.0000 C   0  0  0  0  0  0  0  0  0  0  0  0
   -0.6071    2.0753    0.0000 O   0  0  0  0  0  0  0  0  0  0  0  0
   -1.6553    3.1482    0.0000 C   0  0  0  0  0  0  0  0  0  0  0  0
    0.0360   -0.4420    0.0000 C   0  0  0  0  0  0  0  0  0  0  0  0
   -1.0122    0.6310    0.0000 C   0  0  0  0  0  0  0  0  0  0  0  0
   -2.4655    0.2597    0.0000 C   0  0  0  0  0  0  0  0  0  0  0  0
   -2.8706   -1.1845    0.0000 C   0  0  0  0  0  0  0  0  0  0  0  0
   -4.3240   -1.5558    0.0000 C   0  0  0  0  0  0  0  0  0  0  0  0
   -4.9420   -0.1890    0.0000 C   0  0  0  0  0  0  0  0  0  0  0  0
   -4.0673    1.0296    0.0000 C   0  0  0  0  0  0  0  0  0  0  0  0
   -4.6853    2.3963    0.0000 C   0  0  0  0  0  0  0  0  0  0  0  0
   -6.1780    2.5445    0.0000 C   0  0  0  0  0  0  0  0  0  0  0  0
   -7.0526    1.3259    0.0000 C   0  0  0  0  0  0  0  0  0  0  0  0
   -6.4346   -0.0409    0.0000 C   0  0  0  0  0  0  0  0  0  0  0  0
   -5.5626   -2.4018    0.0000 C   0  0  0  0  0  0  0  0  0  0  0  0
   -4.2107   -3.0515    0.0000 C   0  0  0  0  0  0  0  0  0  0  0  0
   -1.8224   -2.2575    0.0000 C   0  0  0  0  0  0  0  0  0  0  0  0
   -0.3691   -1.8862    0.0000 C   0  0  0  0  0  0  0  0  0  0  0  0
    2.5375   -1.1437    0.0000 C   0  0  0  0  0  0  0  0  0  0  0  0
    3.9909   -0.7724    0.0000 C   0  0  0  0  0  0  0  0  0  0  0  0
    4.3960    0.6719    0.0000 O   0  0  0  0  0  0  0  0  0  0  0  0
    5.8837    0.8632    0.0000 C   0  0  0  0  0  0  0  0  0  0  0  0
    5.0391   -1.8453    0.0000 C   0  0  0  0  0  0  0  0  0  0  0  0
    4.6339   -3.2896    0.0000 C   0  0  0  0  0  0  0  0  0  0  0  0
    3.1806   -3.6609    0.0000 C   0  0  0  0  0  0  0  0  0  0  0  0
    2.1324   -2.5879    0.0000 C   0  0  0  0  0  0  0  0  0  0  0  0
    0.6791   -2.9592    0.0000 O   0  0  0  0  0  0  0  0  0  0  0  0
    0.2740   -4.4034    0.0000 C   0  0  0  0  0  0  0  0  0  0  0  0
  1  2  1  0
  2  3  2  0
  3  4  1  0
  4  5  1  0
  3  6  1  0
  6  7  2  0
  7  8  1  0
  8  9  2  0
  9 10  1  0
 10 11  1  0
  1 12  1  0
 12 13  2  0
 13 14  1  0
 14 15  2  0
 15 16  1  0
 16 17  1  0
 17 18  2  0
 18 19  1  0
 19 20  2  0
 20 21  1  0
 21 22  2  0
 16 23  1  0
 23 24  1  0
 15 25  1  0
 25 26  2  0
  1 27  1  0
 27 28  2  0
 28 29  1  0
 29 30  1  0
 28 31  1  0
 31 32  2  0
 32 33  1  0
 33 34  2  0
 34 35  1  0
 35 36  1  0
  9  2  1  0
 26 12  1  0
 34 27  1  0
 24 16  1  0
 22 17  1  0
M  END
$$$$
Molecule_96
     RDKit          2D

 44 50  0  0  0  0  0  0  0  0999 V2000
    0.1260    1.5189    0.0000 P   0  0  0  0  0  0  0  0  0  0  0  0
    1.4656    0.8439    0.0000 C   0  0  0  0  0  0  0  0  0  0  0  0
    2.7990    1.5308    0.0000 N   0  0  0  0  0  0  0  0  0  0  0  0
    3.8644    0.4749    0.0000 N   0  0  0  0  0  0  0  0  0  0  0  0
    5.3449    0.7161    0.0000 C   0  0  0  0  0  0  0  0  0  0  0  0
    6.2940   -0.4454    0.0000 C   0  0  0  0  0  0  0  0  0  0  0  0
    7.7745   -0.2041    0.0000 C   0  0  0  0  0  0  0  0  0  0  0  0
    8.3058    1.1986    0.0000 C   0  0  0  0  0  0  0  0  0  0  0  0
    7.3567    2.3601    0.0000 C   0  0  0  0  0  0  0  0  0  0  0  0
    5.8762    2.1189    0.0000 C   0  0  0  0  0  0  0  0  0  0  0  0
    3.1894   -0.8647    0.0000 C   0  0  0  0  0  0  0  0  0  0  0  0
    3.8763   -2.1981    0.0000 C   0  0  0  0  0  0  0  0  0  0  0  0
    3.0650   -3.4598    0.0000 C   0  0  0  0  0  0  0  0  0  0  0  0
    3.7519   -4.7932    0.0000 C   0  0  0  0  0  0  0  0  0  0  0  0
    5.2502   -4.8651    0.0000 C   0  0  0  0  0  0  0  0  0  0  0  0
    6.0615   -3.6034    0.0000 C   0  0  0  0  0  0  0  0  0  0  0  0
    5.3746   -2.2700    0.0000 C   0  0  0  0  0  0  0  0  0  0  0  0
    1.7068   -0.6366    0.0000 C   0  0  0  0  0  0  0  0  0  0  0  0
    0.0409    3.0165    0.0000 C   0  0  0  0  0  0  0  0  0  0  0  0
    1.2952    3.8390    0.0000 C   0  0  0  0  0  0  0  0  0  0  0  0
    1.2100    5.3366    0.0000 C   0  0  0  0  0  0  0  0  0  0  0  0
   -0.1295    6.0116    0.0000 C   0  0  0  0  0  0  0  0  0  0  0  0
   -1.3838    5.1891    0.0000 C   0  0  0  0  0  0  0  0  0  0  0  0
   -1.2987    3.6915    0.0000 C   0  0  0  0  0  0  0  0  0  0  0  0
   -2.5530    2.8689    0.0000 N   0  0  0  0  0  0  0  0  0  0  0  0
   -2.7366    1.9021    0.0000 C   0  0  0  0  0  0  0  0  0  0  0  0
   -3.8926    3.5440    0.0000 C   0  0  0  0  0  0  0  0  0  0  0  0
   -1.1283    0.6963    0.0000 C   0  0  0  0  0  0  0  0  0  0  0  0
   -1.2002   -0.8019    0.0000 N   0  0  0  0  0  0  0  0  0  0  0  0
   -2.6473   -1.1966    0.0000 N   0  0  0  0  0  0  0  0  0  0  0  0
   -3.1786   -2.5994    0.0000 C   0  0  0  0  0  0  0  0  0  0  0  0
   -4.6591   -2.8406    0.0000 C   0  0  0  0  0  0  0  0  0  0  0  0
   -5.1904   -4.2434    0.0000 C   0  0  0  0  0  0  0  0  0  0  0  0
   -4.2412   -5.4049    0.0000 C   0  0  0  0  0  0  0  0  0  0  0  0
   -2.7608   -5.1636    0.0000 C   0  0  0  0  0  0  0  0  0  0  0  0
   -2.2294   -3.7609    0.0000 C   0  0  0  0  0  0  0  0  0  0  0  0
   -3.4699    0.0577    0.0000 C   0  0  0  0  0  0  0  0  0  0  0  0
   -4.9681    0.1296    0.0000 C   0  0  0  0  0  0  0  0  0  0  0  0
   -5.6551    1.4630    0.0000 C   0  0  0  0  0  0  0  0  0  0  0  0
   -7.1533    1.5349    0.0000 C   0  0  0  0  0  0  0  0  0  0  0  0
   -7.9647    0.2732    0.0000 C   0  0  0  0  0  0  0  0  0  0  0  0
   -7.2778   -1.0602    0.0000 C   0  0  0  0  0  0  0  0  0  0  0  0
   -5.7795   -1.1321    0.0000 C   0  0  0  0  0  0  0  0  0  0  0  0
   -2.5311    1.2277    0.0000 C   0  0  0  0  0  0  0  0  0  0  0  0
  1  2  1  0
  2  3  2  0
  3  4  1  0
  4  5  1  0
  5  6  2  0
  6  7  1  0
  7  8  2  0
  8  9  1  0
  9 10  2  0
  4 11  1  0
 11 12  1  0
 12 13  2  0
 13 14  1  0
 14 15  2  0
 15 16  1  0
 16 17  2  0
 11 18  2  0
  1 19  1  0
 19 20  2  0
 20 21  1  0
 21 22  2  0
 22 23  1  0
 23 24  2  0
 24 25  1  0
 25 26  1  0
 25 27  1  0
  1 28  1  0
 28 29  2  0
 29 30  1  0
 30 31  1  0
 31 32  2  0
 32 33  1  0
 33 34  2  0
 34 35  1  0
 35 36  2  0
 30 37  1  0
 37 38  1  0
 38 39  2  0
 39 40  1  0
 40 41  2  0
 41 42  1  0
 42 43  2  0
 37 44  2  0
 18  2  1  0
 24 19  1  0
 44 28  1  0
 10  5  1  0
 17 12  1  0
 36 31  1  0
 43 38  1  0
M  END
$$$$
Molecule_97
     RDKit          2D

 38 40  0  0  0  0  0  0  0  0999 V2000
   -0.2693    0.3244    0.0000 P   0  0  0  0  0  0  0  0  0  0  0  0
    0.8069    1.3693    0.0000 C   0  0  0  0  0  0  0  0  0  0  0  0
    2.2499    0.9598    0.0000 C   0  0  0  0  0  0  0  0  0  0  0  0
    2.6168   -0.4947    0.0000 O   0  0  0  0  0  0  0  0  0  0  0  0
    4.0598   -0.9042    0.0000 C   0  0  0  0  0  0  0  0  0  0  0  0
    4.6011   -2.3031    0.0000 C   0  0  0  0  0  0  0  0  0  0  0  0
    5.0006    0.2641    0.0000 C   0  0  0  0  0  0  0  0  0  0  0  0
    3.3261    2.0047    0.0000 C   0  0  0  0  0  0  0  0  0  0  0  0
    2.9593    3.4591    0.0000 C   0  0  0  0  0  0  0  0  0  0  0  0
    1.5163    3.8687    0.0000 C   0  0  0  0  0  0  0  0  0  0  0  0
    0.4401    2.8238    0.0000 C   0  0  0  0  0  0  0  0  0  0  0  0
   -1.0029    3.2333    0.0000 O   0  0  0  0  0  0  0  0  0  0  0  0
   -1.3697    4.6878    0.0000 C   0  0  0  0  0  0  0  0  0  0  0  0
   -2.8127    5.0973    0.0000 C   0  0  0  0  0  0  0  0  0  0  0  0
   -0.2935    5.7327    0.0000 C   0  0  0  0  0  0  0  0  0  0  0  0
   -1.7123    0.7340    0.0000 C   0  0  0  0  0  0  0  0  0  0  0  0
   -2.0791    2.1884    0.0000 C   0  0  0  0  0  0  0  0  0  0  0  0
   -3.5221    2.5980    0.0000 C   0  0  0  0  0  0  0  0  0  0  0  0
   -4.5983    1.5531    0.0000 C   0  0  0  0  0  0  0  0  0  0  0  0
   -4.2315    0.0986    0.0000 C   0  0  0  0  0  0  0  0  0  0  0  0
   -2.7885   -0.3109    0.0000 C   0  0  0  0  0  0  0  0  0  0  0  0
   -2.4216   -1.7654    0.0000 N   0  0  0  0  0  0  0  0  0  0  0  0
   -3.7187   -2.5188    0.0000 C   0  0  0  0  0  0  0  0  0  0  0  0
   -1.7302   -2.1621    0.0000 C   0  0  0  0  0  0  0  0  0  0  0  0
    0.0976   -1.1300    0.0000 C   0  0  0  0  0  0  0  0  0  0  0  0
   -0.9786   -2.1749    0.0000 C   0  0  0  0  0  0  0  0  0  0  0  0
   -2.4216   -1.7654    0.0000 O   0  0  0  0  0  0  0  0  0  0  0  0
   -3.4978   -2.8103    0.0000 C   0  0  0  0  0  0  0  0  0  0  0  0
   -4.9408   -2.4007    0.0000 C   0  0  0  0  0  0  0  0  0  0  0  0
   -3.1310   -4.2647    0.0000 C   0  0  0  0  0  0  0  0  0  0  0  0
   -0.6118   -3.6294    0.0000 C   0  0  0  0  0  0  0  0  0  0  0  0
    0.8312   -4.0389    0.0000 C   0  0  0  0  0  0  0  0  0  0  0  0
    1.9074   -2.9940    0.0000 C   0  0  0  0  0  0  0  0  0  0  0  0
    1.5406   -1.5396    0.0000 C   0  0  0  0  0  0  0  0  0  0  0  0
    2.6168   -0.4947    0.0000 O   0  0  0  0  0  0  0  0  0  0  0  0
    4.0598   -0.9042    0.0000 C   0  0  0  0  0  0  0  0  0  0  0  0
    5.2553    0.0017    0.0000 C   0  0  0  0  0  0  0  0  0  0  0  0
    4.2466   -2.3926    0.0000 C   0  0  0  0  0  0  0  0  0  0  0  0
  1  2  1  0
  2  3  2  0
  3  4  1  0
  4  5  1  0
  5  6  1  0
  5  7  1  0
  3  8  1  0
  8  9  2  0
  9 10  1  0
 10 11  2  0
 11 12  1  0
 12 13  1  0
 13 14  1  0
 13 15  1  0
  1 16  1  0
 16 17  2  0
 17 18  1  0
 18 19  2  0
 19 20  1  0
 20 21  2  0
 21 22  1  0
 22 23  1  0
 22 24  1  0
  1 25  1  0
 25 26  2  0
 26 27  1  0
 27 28  1  0
 28 29  1  0
 28 30  1  0
 26 31  1  0
 31 32  2  0
 32 33  1  0
 33 34  2  0
 34 35  1  0
 35 36  1  0
 36 37  1  0
 36 38  1  0
 11  2  1  0
 21 16  1  0
 34 25  1  0
M  END
$$$$
Molecule_98
     RDKit          2D

 38 43  0  0  0  0  0  0  0  0999 V2000
   -0.0000    2.1764    0.0000 P   0  0  0  0  0  0  0  0  0  0  0  0
    1.2990    1.4264    0.0000 C   0  0  0  0  0  0  0  0  0  0  0  0
    2.6694    2.0365    0.0000 N   0  0  0  0  0  0  0  0  0  0  0  0
    3.6731    0.9218    0.0000 N   0  0  0  0  0  0  0  0  0  0  0  0
    5.1648    1.0786    0.0000 C   0  0  0  0  0  0  0  0  0  0  0  0
    6.0465   -0.1349    0.0000 C   0  0  0  0  0  0  0  0  0  0  0  0
    7.5383    0.0219    0.0000 C   0  0  0  0  0  0  0  0  0  0  0  0
    8.1484    1.3922    0.0000 C   0  0  0  0  0  0  0  0  0  0  0  0
    7.2667    2.6057    0.0000 C   0  0  0  0  0  0  0  0  0  0  0  0
    5.7749    2.4489    0.0000 C   0  0  0  0  0  0  0  0  0  0  0  0
    2.9231   -0.3772    0.0000 C   0  0  0  0  0  0  0  0  0  0  0  0
    3.5332   -1.7476    0.0000 C   0  0  0  0  0  0  0  0  0  0  0  0
    2.6515   -2.9611    0.0000 C   0  0  0  0  0  0  0  0  0  0  0  0
    3.2616   -4.3314    0.0000 C   0  0  0  0  0  0  0  0  0  0  0  0
    4.7534   -4.4882    0.0000 C   0  0  0  0  0  0  0  0  0  0  0  0
    5.6350   -3.2747    0.0000 C   0  0  0  0  0  0  0  0  0  0  0  0
    5.0249   -1.9043    0.0000 C   0  0  0  0  0  0  0  0  0  0  0  0
    1.4558   -0.0654    0.0000 C   0  0  0  0  0  0  0  0  0  0  0  0
   -0.0000    3.6764    0.0000 C   0  0  0  0  0  0  0  0  0  0  0  0
   -1.2990    4.4264    0.0000 C   0  0  0  0  0  0  0  0  0  0  0  0
    1.2990    4.4264    0.0000 C   0  0  0  0  0  0  0  0  0  0  0  0
   -1.2990    1.4264    0.0000 C   0  0  0  0  0  0  0  0  0  0  0  0
   -1.4558   -0.0654    0.0000 N   0  0  0  0  0  0  0  0  0  0  0  0
   -2.9231   -0.3772    0.0000 N   0  0  0  0  0  0  0  0  0  0  0  0
   -3.5332   -1.7476    0.0000 C   0  0  0  0  0  0  0  0  0  0  0  0
   -5.0249   -1.9043    0.0000 C   0  0  0  0  0  0  0  0  0  0  0  0
   -5.6350   -3.2747    0.0000 C   0  0  0  0  0  0  0  0  0  0  0  0
   -4.7534   -4.4882    0.0000 C   0  0  0  0  0  0  0  0  0  0  0  0
   -3.2616   -4.3314    0.0000 C   0  0  0  0  0  0  0  0  0  0  0  0
   -2.6515   -2.9611    0.0000 C   0  0  0  0  0  0  0  0  0  0  0  0
   -3.6731    0.9218    0.0000 C   0  0  0  0  0  0  0  0  0  0  0  0
   -5.1648    1.0786    0.0000 C   0  0  0  0  0  0  0  0  0  0  0  0
   -5.7749    2.4489    0.0000 C   0  0  0  0  0  0  0  0  0  0  0  0
   -7.2667    2.6057    0.0000 C   0  0  0  0  0  0  0  0  0  0  0  0
   -8.1484    1.3922    0.0000 C   0  0  0  0  0  0  0  0  0  0  0  0
   -7.5383    0.0219    0.0000 C   0  0  0  0  0  0  0  0  0  0  0  0
   -6.0465   -0.1349    0.0000 C   0  0  0  0  0  0  0  0  0  0  0  0
   -2.6694    2.0365    0.0000 C   0  0  0  0  0  0  0  0  0  0  0  0
  1  2  1  0
  2  3  2  0
  3  4  1  0
  4  5  1  0
  5  6  2  0
  6  7  1  0
  7  8  2  0
  8  9  1  0
  9 10  2  0
  4 11  1  0
 11 12  1  0
 12 13  2  0
 13 14  1  0
 14 15  2  0
 15 16  1  0
 16 17  2  0
 11 18  2  0
  1 19  1  0
 19 20  1  0
 19 21  1  0
  1 22  1  0
 22 23  2  0
 23 24  1  0
 24 25  1  0
 25 26  2  0
 26 27  1  0
 27 28  2  0
 28 29  1  0
 29 30  2  0
 24 31  1  0
 31 32  1  0
 32 33  2  0
 33 34  1  0
 34 35  2  0
 35 36  1  0
 36 37  2  0
 31 38  2  0
 18  2  1  0
 38 22  1  0
 10  5  1  0
 17 12  1  0
 30 25  1  0
 37 32  1  0
M  END
$$$$
Molecule_99
     RDKit          2D

 27 31  0  0  0  0  0  0  0  0999 V2000
    0.0000   -0.8889    0.0000 P   0  0  0  0  0  0  0  0  0  0  0  0
   -1.2990   -1.6389    0.0000 C   0  0  0  0  0  0  0  0  0  0  0  0
   -2.5981   -0.8889    0.0000 C   0  0  0  0  0  0  0  0  0  0  0  0
   -3.8971   -1.6389    0.0000 C   0  0  0  0  0  0  0  0  0  0  0  0
   -3.8971   -3.1389    0.0000 N   0  0  0  0  0  0  0  0  0  0  0  0
   -2.5981   -3.8889    0.0000 C   0  0  0  0  0  0  0  0  0  0  0  0
   -1.2990   -3.1389    0.0000 C   0  0  0  0  0  0  0  0  0  0  0  0
   -0.0000    0.6111    0.0000 C   0  0  0  0  0  0  0  0  0  0  0  0
    1.2990    1.3611    0.0000 C   0  0  0  0  0  0  0  0  0  0  0  0
    2.5981    0.6111    0.0000 C   0  0  0  0  0  0  0  0  0  0  0  0
    3.8971    1.3611    0.0000 C   0  0  0  0  0  0  0  0  0  0  0  0
    3.8971    2.8611    0.0000 C   0  0  0  0  0  0  0  0  0  0  0  0
    2.5981    3.6111    0.0000 C   0  0  0  0  0  0  0  0  0  0  0  0
    1.2990    2.8611    0.0000 C   0  0  0  0  0  0  0  0  0  0  0  0
   -0.0000    3.6111    0.0000 C   0  0  0  0  0  0  0  0  0  0  0  0
   -1.2990    2.8611    0.0000 C   0  0  0  0  0  0  0  0  0  0  0  0
   -2.5981    3.6111    0.0000 C   0  0  0  0  0  0  0  0  0  0  0  0
   -3.8971    2.8611    0.0000 C   0  0  0  0  0  0  0  0  0  0  0  0
   -3.8971    1.3611    0.0000 C   0  0  0  0  0  0  0  0  0  0  0  0
   -2.5981    0.6111    0.0000 C   0  0  0  0  0  0  0  0  0  0  0  0
   -1.2990    1.3611    0.0000 C   0  0  0  0  0  0  0  0  0  0  0  0
    1.2990   -1.6389    0.0000 C   0  0  0  0  0  0  0  0  0  0  0  0
    1.2990   -3.1389    0.0000 C   0  0  0  0  0  0  0  0  0  0  0  0
    2.5981   -3.8889    0.0000 C   0  0  0  0  0  0  0  0  0  0  0  0
    3.8971   -3.1389    0.0000 N   0  0  0  0  0  0  0  0  0  0  0  0
    3.8971   -1.6389    0.0000 C   0  0  0  0  0  0  0  0  0  0  0  0
    2.5981   -0.8889    0.0000 C   0  0  0  0  0  0  0  0  0  0  0  0
  1  2  1  0
  2  3  2  0
  3  4  1  0
  4  5  2  0
  5  6  1  0
  6  7  2  0
  1  8  1  0
  8  9  1  0
  9 10  2  0
 10 11  1  0
 11 12  2  0
 12 13  1  0
 13 14  2  0
 14 15  1  0
 15 16  2  0
 16 17  1  0
 17 18  2  0
 18 19  1  0
 19 20  2  0
 20 21  1  0
  1 22  1  0
 22 23  2  0
 23 24  1  0
 24 25  2  0
 25 26  1  0
 26 27  2  0
  7  2  1  0
 21  8  2  0
 27 22  1  0
 14  9  1  0
 21 16  1  0
M  END
$$$$
Molecule_100
     RDKit          2D

 30 32  0  0  0  0  0  0  0  0999 V2000
    0.0893   -0.3258    0.0000 P   0  0  0  0  0  0  0  0  0  0  0  0
   -0.0860    1.1639    0.0000 C   0  0  0  0  0  0  0  0  0  0  0  0
   -1.4639    1.7569    0.0000 C   0  0  0  0  0  0  0  0  0  0  0  0
   -2.6663    0.8602    0.0000 O   0  0  0  0  0  0  0  0  0  0  0  0
   -3.9616    1.6167    0.0000 C   0  0  0  0  0  0  0  0  0  0  0  0
   -1.6392    3.2466    0.0000 C   0  0  0  0  0  0  0  0  0  0  0  0
   -0.4368    4.1434    0.0000 C   0  0  0  0  0  0  0  0  0  0  0  0
    0.9410    3.5504    0.0000 C   0  0  0  0  0  0  0  0  0  0  0  0
    1.1164    2.0607    0.0000 C   0  0  0  0  0  0  0  0  0  0  0  0
    2.4942    1.4677    0.0000 O   0  0  0  0  0  0  0  0  0  0  0  0
    3.5784    2.5043    0.0000 C   0  0  0  0  0  0  0  0  0  0  0  0
   -1.1131   -1.2225    0.0000 C   0  0  0  0  0  0  0  0  0  0  0  0
   -0.9377   -2.7122    0.0000 C   0  0  0  0  0  0  0  0  0  0  0  0
   -2.1402   -3.6090    0.0000 C   0  0  0  0  0  0  0  0  0  0  0  0
   -3.5180   -3.0160    0.0000 C   0  0  0  0  0  0  0  0  0  0  0  0
   -3.6934   -1.5263    0.0000 C   0  0  0  0  0  0  0  0  0  0  0  0
   -2.4909   -0.6295    0.0000 C   0  0  0  0  0  0  0  0  0  0  0  0
   -2.6663    0.8602    0.0000 N   0  0  0  0  0  0  0  0  0  0  0  0
   -4.1061    1.2808    0.0000 C   0  0  0  0  0  0  0  0  0  0  0  0
   -1.7166    2.0212    0.0000 C   0  0  0  0  0  0  0  0  0  0  0  0
    1.4672   -0.9188    0.0000 C   0  0  0  0  0  0  0  0  0  0  0  0
    1.6425   -2.4085    0.0000 C   0  0  0  0  0  0  0  0  0  0  0  0
    0.4401   -3.3052    0.0000 O   0  0  0  0  0  0  0  0  0  0  0  0
    0.6155   -4.7949    0.0000 C   0  0  0  0  0  0  0  0  0  0  0  0
    3.0204   -3.0014    0.0000 C   0  0  0  0  0  0  0  0  0  0  0  0
    4.2228   -2.1047    0.0000 C   0  0  0  0  0  0  0  0  0  0  0  0
    4.0474   -0.6150    0.0000 C   0  0  0  0  0  0  0  0  0  0  0  0
    2.6696   -0.0220    0.0000 C   0  0  0  0  0  0  0  0  0  0  0  0
    2.4942    1.4677    0.0000 O   0  0  0  0  0  0  0  0  0  0  0  0
    3.7970    2.2112    0.0000 C   0  0  0  0  0  0  0  0  0  0  0  0
  1  2  1  0
  2  3  2  0
  3  4  1  0
  4  5  1  0
  3  6  1  0
  6  7  2  0
  7  8  1  0
  8  9  2  0
  9 10  1  0
 10 11  1  0
  1 12  1  0
 12 13  2  0
 13 14  1  0
 14 15  2  0
 15 16  1  0
 16 17  2  0
 17 18  1  0
 18 19  1  0
 18 20  1  0
  1 21  1  0
 21 22  2  0
 22 23  1  0
 23 24  1  0
 22 25  1  0
 25 26  2  0
 26 27  1  0
 27 28  2  0
 28 29  1  0
 29 30  1  0
  9  2  1  0
 17 12  1  0
 28 21  1  0
M  END
$$$$
Molecule_101
     RDKit          2D

 25 28  0  0  0  0  0  0  0  0999 V2000
    0.9525   -0.0000    0.0000 P   0  0  0  0  0  0  0  0  0  0  0  0
    2.3698    0.4910    0.0000 C   0  0  0  0  0  0  0  0  0  0  0  0
    3.5037   -0.4910    0.0000 C   0  0  0  0  0  0  0  0  0  0  0  0
    4.9211   -0.0000    0.0000 C   0  0  0  0  0  0  0  0  0  0  0  0
    5.2046    1.4730    0.0000 N   0  0  0  0  0  0  0  0  0  0  0  0
    4.0707    2.4550    0.0000 C   0  0  0  0  0  0  0  0  0  0  0  0
    2.6533    1.9640    0.0000 C   0  0  0  0  0  0  0  0  0  0  0  0
    0.6690   -1.4730    0.0000 C   0  0  0  0  0  0  0  0  0  0  0  0
    1.8029   -2.4550    0.0000 C   0  0  0  0  0  0  0  0  0  0  0  0
    1.5194   -3.9279    0.0000 C   0  0  0  0  0  0  0  0  0  0  0  0
    0.1021   -4.4189    0.0000 C   0  0  0  0  0  0  0  0  0  0  0  0
   -1.0318   -3.4369    0.0000 C   0  0  0  0  0  0  0  0  0  0  0  0
   -0.7484   -1.9640    0.0000 C   0  0  0  0  0  0  0  0  0  0  0  0
   -1.8823   -0.9820    0.0000 N   0  0  0  0  0  0  0  0  0  0  0  0
   -3.2996   -1.4730    0.0000 C   0  0  0  0  0  0  0  0  0  0  0  0
   -4.4335   -0.4910    0.0000 C   0  0  0  0  0  0  0  0  0  0  0  0
   -4.1500    0.9820    0.0000 C   0  0  0  0  0  0  0  0  0  0  0  0
   -2.7327    1.4730    0.0000 C   0  0  0  0  0  0  0  0  0  0  0  0
   -1.5988    0.4910    0.0000 C   0  0  0  0  0  0  0  0  0  0  0  0
   -0.1814    0.9820    0.0000 C   0  0  0  0  0  0  0  0  0  0  0  0
    0.1021    2.4550    0.0000 C   0  0  0  0  0  0  0  0  0  0  0  0
   -1.0318    3.4369    0.0000 C   0  0  0  0  0  0  0  0  0  0  0  0
   -2.4492    2.9459    0.0000 N   0  0  0  0  0  0  0  0  0  0  0  0
   -2.7327    1.4730    0.0000 C   0  0  0  0  0  0  0  0  0  0  0  0
   -1.5988    0.4910    0.0000 C   0  0  0  0  0  0  0  0  0  0  0  0
  1  2  1  0
  2  3  2  0
  3  4  1  0
  4  5  2  0
  5  6  1  0
  6  7  2  0
  1  8  1  0
  8  9  2  0
  9 10  1  0
 10 11  2  0
 11 12  1  0
 12 13  2  0
 13 14  1  0
 14 15  1  0
 15 16  1  0
 16 17  1  0
 17 18  1  0
 18 19  1  0
  1 20  1  0
 20 21  2  0
 21 22  1  0
 22 23  2  0
 23 24  1  0
 24 25  2  0
  7  2  1  0
 13  8  1  0
 19 14  1  0
 25 20  1  0
M  END
$$$$
Molecule_102
     RDKit          2D

 32 35  0  0  0  0  0  0  0  0999 V2000
   -0.9192   -0.1670    0.0000 P   0  0  0  0  0  0  0  0  0  0  0  0
   -1.1798    1.3102    0.0000 C   0  0  0  0  0  0  0  0  0  0  0  0
   -2.5893    1.8232    0.0000 C   0  0  0  0  0  0  0  0  0  0  0  0
   -3.7383    0.8589    0.0000 O   0  0  0  0  0  0  0  0  0  0  0  0
   -5.0749    1.5399    0.0000 C   0  0  0  0  0  0  0  0  0  0  0  0
   -2.8499    3.3004    0.0000 C   0  0  0  0  0  0  0  0  0  0  0  0
   -1.7009    4.2646    0.0000 C   0  0  0  0  0  0  0  0  0  0  0  0
   -0.2913    3.7517    0.0000 C   0  0  0  0  0  0  0  0  0  0  0  0
   -0.0308    2.2745    0.0000 C   0  0  0  0  0  0  0  0  0  0  0  0
    1.3788    1.7615    0.0000 O   0  0  0  0  0  0  0  0  0  0  0  0
    2.5278    2.7258    0.0000 C   0  0  0  0  0  0  0  0  0  0  0  0
    0.4904   -0.6799    0.0000 C   0  0  0  0  0  0  0  0  0  0  0  0
    1.7339    0.1589    0.0000 N   0  0  0  0  0  0  0  0  0  0  0  0
    2.9159   -0.7645    0.0000 N   0  0  0  0  0  0  0  0  0  0  0  0
    4.3578   -0.3510    0.0000 C   0  0  0  0  0  0  0  0  0  0  0  0
    5.4369   -1.3929    0.0000 C   0  0  0  0  0  0  0  0  0  0  0  0
    6.8787   -0.9794    0.0000 C   0  0  0  0  0  0  0  0  0  0  0  0
    7.2415    0.4761    0.0000 C   0  0  0  0  0  0  0  0  0  0  0  0
    6.1625    1.5180    0.0000 C   0  0  0  0  0  0  0  0  0  0  0  0
    4.7206    1.1045    0.0000 C   0  0  0  0  0  0  0  0  0  0  0  0
    2.4030   -2.1741    0.0000 C   0  0  0  0  0  0  0  0  0  0  0  0
    0.9039   -2.1218    0.0000 C   0  0  0  0  0  0  0  0  0  0  0  0
   -2.0682   -1.1312    0.0000 C   0  0  0  0  0  0  0  0  0  0  0  0
   -3.4778   -0.6183    0.0000 C   0  0  0  0  0  0  0  0  0  0  0  0
   -3.7383    0.8589    0.0000 O   0  0  0  0  0  0  0  0  0  0  0  0
   -5.1999    1.1962    0.0000 C   0  0  0  0  0  0  0  0  0  0  0  0
   -4.6268   -1.5825    0.0000 C   0  0  0  0  0  0  0  0  0  0  0  0
   -4.3663   -3.0597    0.0000 C   0  0  0  0  0  0  0  0  0  0  0  0
   -2.9567   -3.5727    0.0000 C   0  0  0  0  0  0  0  0  0  0  0  0
   -1.8077   -2.6084    0.0000 C   0  0  0  0  0  0  0  0  0  0  0  0
   -0.3981   -3.1214    0.0000 O   0  0  0  0  0  0  0  0  0  0  0  0
   -0.1376   -4.5986    0.0000 C   0  0  0  0  0  0  0  0  0  0  0  0
  1  2  1  0
  2  3  2  0
  3  4  1  0
  4  5  1  0
  3  6  1  0
  6  7  2  0
  7  8  1  0
  8  9  2  0
  9 10  1  0
 10 11  1  0
  1 12  1  0
 12 13  2  0
 13 14  1  0
 14 15  1  0
 15 16  2  0
 16 17  1  0
 17 18  2  0
 18 19  1  0
 19 20  2  0
 14 21  1  0
 21 22  2  0
  1 23  1  0
 23 24  2  0
 24 25  1  0
 25 26  1  0
 24 27  1  0
 27 28  2  0
 28 29  1  0
 29 30  2  0
 30 31  1  0
 31 32  1  0
  9  2  1  0
 22 12  1  0
 30 23  1  0
 20 15  1  0
M  END
$$$$
Molecule_103
     RDKit          2D

 37 39  0  0  0  0  0  0  0  0999 V2000
   -0.0140    0.0478    0.0000 P   0  0  0  0  0  0  0  0  0  0  0  0
    1.2801    0.8063    0.0000 C   0  0  0  0  0  0  0  0  0  0  0  0
    2.5840    0.0649    0.0000 C   0  0  0  0  0  0  0  0  0  0  0  0
    2.5939   -1.4351    0.0000 N   0  0  0  0  0  0  0  0  0  0  0  0
    2.0242   -1.9926    0.0000 C   0  0  0  0  0  0  0  0  0  0  0  0
    4.0385   -1.8390    0.0000 C   0  0  0  0  0  0  0  0  0  0  0  0
    3.8781    0.8234    0.0000 C   0  0  0  0  0  0  0  0  0  0  0  0
    3.8683    2.3234    0.0000 C   0  0  0  0  0  0  0  0  0  0  0  0
    2.5643    3.0648    0.0000 C   0  0  0  0  0  0  0  0  0  0  0  0
    1.2702    2.3063    0.0000 C   0  0  0  0  0  0  0  0  0  0  0  0
   -0.0337    3.0477    0.0000 N   0  0  0  0  0  0  0  0  0  0  0  0
    0.1393    4.5377    0.0000 C   0  0  0  0  0  0  0  0  0  0  0  0
   -1.4729    2.6249    0.0000 C   0  0  0  0  0  0  0  0  0  0  0  0
   -0.0041   -1.4522    0.0000 C   0  0  0  0  0  0  0  0  0  0  0  0
   -1.2982   -2.2107    0.0000 C   0  0  0  0  0  0  0  0  0  0  0  0
   -2.6021   -1.4693    0.0000 O   0  0  0  0  0  0  0  0  0  0  0  0
   -3.8962   -2.2278    0.0000 C   0  0  0  0  0  0  0  0  0  0  0  0
   -5.2002   -1.4863    0.0000 C   0  0  0  0  0  0  0  0  0  0  0  0
   -1.2883   -3.7107    0.0000 C   0  0  0  0  0  0  0  0  0  0  0  0
    0.0156   -4.4521    0.0000 C   0  0  0  0  0  0  0  0  0  0  0  0
    1.3097   -3.6936    0.0000 C   0  0  0  0  0  0  0  0  0  0  0  0
    1.2998   -2.1936    0.0000 C   0  0  0  0  0  0  0  0  0  0  0  0
    2.5939   -1.4351    0.0000 O   0  0  0  0  0  0  0  0  0  0  0  0
    3.8978   -2.1765    0.0000 C   0  0  0  0  0  0  0  0  0  0  0  0
    5.1919   -1.4180    0.0000 C   0  0  0  0  0  0  0  0  0  0  0  0
   -1.3179    0.7892    0.0000 C   0  0  0  0  0  0  0  0  0  0  0  0
   -1.3278    2.2892    0.0000 C   0  0  0  0  0  0  0  0  0  0  0  0
   -0.0337    3.0477    0.0000 N   0  0  0  0  0  0  0  0  0  0  0  0
   -0.2263    4.5353    0.0000 C   0  0  0  0  0  0  0  0  0  0  0  0
    1.4109    2.6438    0.0000 C   0  0  0  0  0  0  0  0  0  0  0  0
   -2.6317    3.0306    0.0000 C   0  0  0  0  0  0  0  0  0  0  0  0
   -3.9258    2.2721    0.0000 C   0  0  0  0  0  0  0  0  0  0  0  0
   -3.9159    0.7722    0.0000 C   0  0  0  0  0  0  0  0  0  0  0  0
   -2.6120    0.0307    0.0000 C   0  0  0  0  0  0  0  0  0  0  0  0
   -2.6021   -1.4693    0.0000 N   0  0  0  0  0  0  0  0  0  0  0  0
   -4.0413   -1.8921    0.0000 C   0  0  0  0  0  0  0  0  0  0  0  0
   -1.5164   -2.5042    0.0000 C   0  0  0  0  0  0  0  0  0  0  0  0
  1  2  1  0
  2  3  2  0
  3  4  1  0
  4  5  1  0
  4  6  1  0
  3  7  1  0
  7  8  2  0
  8  9  1  0
  9 10  2  0
 10 11  1  0
 11 12  1  0
 11 13  1  0
  1 14  1  0
 14 15  2  0
 15 16  1  0
 16 17  1  0
 17 18  1  0
 15 19  1  0
 19 20  2  0
 20 21  1  0
 21 22  2  0
 22 23  1  0
 23 24  1  0
 24 25  1  0
  1 26  1  0
 26 27  2  0
 27 28  1  0
 28 29  1  0
 28 30  1  0
 27 31  1  0
 31 32  2  0
 32 33  1  0
 33 34  2  0
 34 35  1  0
 35 36  1  0
 35 37  1  0
 10  2  1  0
 22 14  1  0
 34 26  1  0
M  END
$$$$
Molecule_104
     RDKit          2D

 35 37  0  0  0  0  0  0  0  0999 V2000
    0.5136    0.0000    0.0000 P   0  0  0  0  0  0  0  0  0  0  0  0
   -0.2364    1.2990    0.0000 C   0  0  0  0  0  0  0  0  0  0  0  0
   -1.7364    1.2990    0.0000 C   0  0  0  0  0  0  0  0  0  0  0  0
   -2.4864    0.0000    0.0000 O   0  0  0  0  0  0  0  0  0  0  0  0
   -3.9864    0.0000    0.0000 C   0  0  0  0  0  0  0  0  0  0  0  0
   -4.5724   -1.3808    0.0000 C   0  0  0  0  0  0  0  0  0  0  0  0
   -4.5724    1.3808    0.0000 C   0  0  0  0  0  0  0  0  0  0  0  0
   -2.4864    2.5981    0.0000 C   0  0  0  0  0  0  0  0  0  0  0  0
   -1.7364    3.8971    0.0000 C   0  0  0  0  0  0  0  0  0  0  0  0
   -0.2364    3.8971    0.0000 C   0  0  0  0  0  0  0  0  0  0  0  0
    0.5136    2.5981    0.0000 C   0  0  0  0  0  0  0  0  0  0  0  0
    2.0136    2.5981    0.0000 O   0  0  0  0  0  0  0  0  0  0  0  0
    2.7636    3.8971    0.0000 C   0  0  0  0  0  0  0  0  0  0  0  0
    4.2636    3.8971    0.0000 C   0  0  0  0  0  0  0  0  0  0  0  0
    2.0136    5.1962    0.0000 C   0  0  0  0  0  0  0  0  0  0  0  0
    2.0136    0.0000    0.0000 N   0  0  0  0  0  0  0  0  0  0  0  0
    2.7636   -1.2990    0.0000 C   0  0  0  0  0  0  0  0  0  0  0  0
    4.2636   -1.2990    0.0000 C   0  0  0  0  0  0  0  0  0  0  0  0
    5.0136   -0.0000    0.0000 C   0  0  0  0  0  0  0  0  0  0  0  0
    4.2636    1.2990    0.0000 C   0  0  0  0  0  0  0  0  0  0  0  0
    2.7636    1.2990    0.0000 C   0  0  0  0  0  0  0  0  0  0  0  0
   -0.2364   -1.2990    0.0000 C   0  0  0  0  0  0  0  0  0  0  0  0
    0.5136   -2.5981    0.0000 C   0  0  0  0  0  0  0  0  0  0  0  0
    2.0136   -2.5981    0.0000 O   0  0  0  0  0  0  0  0  0  0  0  0
    2.7636   -3.8971    0.0000 C   0  0  0  0  0  0  0  0  0  0  0  0
    4.2636   -3.8971    0.0000 C   0  0  0  0  0  0  0  0  0  0  0  0
    2.0136   -5.1962    0.0000 C   0  0  0  0  0  0  0  0  0  0  0  0
   -0.2364   -3.8971    0.0000 C   0  0  0  0  0  0  0  0  0  0  0  0
   -1.7364   -3.8971    0.0000 C   0  0  0  0  0  0  0  0  0  0  0  0
   -2.4864   -2.5981    0.0000 C   0  0  0  0  0  0  0  0  0  0  0  0
   -1.7364   -1.2990    0.0000 C   0  0  0  0  0  0  0  0  0  0  0  0
   -2.4864   -0.0000    0.0000 O   0  0  0  0  0  0  0  0  0  0  0  0
   -3.9864   -0.0000    0.0000 C   0  0  0  0  0  0  0  0  0  0  0  0
   -4.8891    1.1979    0.0000 C   0  0  0  0  0  0  0  0  0  0  0  0
   -4.8891   -1.1979    0.0000 C   0  0  0  0  0  0  0  0  0  0  0  0
  1  2  1  0
  2  3  2  0
  3  4  1  0
  4  5  1  0
  5  6  1  0
  5  7  1  0
  3  8  1  0
  8  9  2  0
  9 10  1  0
 10 11  2  0
 11 12  1  0
 12 13  1  0
 13 14  1  0
 13 15  1  0
  1 16  1  0
 16 17  1  0
 17 18  1  0
 18 19  1  0
 19 20  1  0
 20 21  1  0
  1 22  1  0
 22 23  2  0
 23 24  1  0
 24 25  1  0
 25 26  1  0
 25 27  1  0
 23 28  1  0
 28 29  2  0
 29 30  1  0
 30 31  2  0
 31 32  1  0
 32 33  1  0
 33 34  1  0
 33 35  1  0
 11  2  1  0
 21 16  1  0
 31 22  1  0
M  END
$$$$
Molecule_105
     RDKit          2D

 26 29  0  0  0  0  0  0  0  0999 V2000
    1.3135   -0.0205    0.0000 P   0  0  0  0  0  0  0  0  0  0  0  0
    2.5008    0.8961    0.0000 C   0  0  0  0  0  0  0  0  0  0  0  0
    3.8883    0.3262    0.0000 C   0  0  0  0  0  0  0  0  0  0  0  0
    5.0756    1.2429    0.0000 C   0  0  0  0  0  0  0  0  0  0  0  0
    4.8754    2.7295    0.0000 C   0  0  0  0  0  0  0  0  0  0  0  0
    3.4879    3.2994    0.0000 C   0  0  0  0  0  0  0  0  0  0  0  0
    2.3006    2.3827    0.0000 C   0  0  0  0  0  0  0  0  0  0  0  0
    0.9131    2.9527    0.0000 C   0  0  0  0  0  0  0  0  0  0  0  0
   -0.0740    0.5494    0.0000 C   0  0  0  0  0  0  0  0  0  0  0  0
   -1.3507   -0.2381    0.0000 N   0  0  0  0  0  0  0  0  0  0  0  0
   -2.4942    0.7327    0.0000 N   0  0  0  0  0  0  0  0  0  0  0  0
   -3.9517    0.3782    0.0000 C   0  0  0  0  0  0  0  0  0  0  0  0
   -4.9874    1.4632    0.0000 C   0  0  0  0  0  0  0  0  0  0  0  0
   -6.4449    1.1087    0.0000 C   0  0  0  0  0  0  0  0  0  0  0  0
   -6.8667   -0.3308    0.0000 C   0  0  0  0  0  0  0  0  0  0  0  0
   -5.8310   -1.4158    0.0000 C   0  0  0  0  0  0  0  0  0  0  0  0
   -4.3734   -1.0613    0.0000 C   0  0  0  0  0  0  0  0  0  0  0  0
   -1.9242    2.1202    0.0000 C   0  0  0  0  0  0  0  0  0  0  0  0
   -0.4285    2.0069    0.0000 C   0  0  0  0  0  0  0  0  0  0  0  0
    1.5137   -1.5071    0.0000 C   0  0  0  0  0  0  0  0  0  0  0  0
    0.3263   -2.4237    0.0000 C   0  0  0  0  0  0  0  0  0  0  0  0
    0.5265   -3.9103    0.0000 C   0  0  0  0  0  0  0  0  0  0  0  0
    1.9140   -4.4803    0.0000 C   0  0  0  0  0  0  0  0  0  0  0  0
    3.1014   -3.5636    0.0000 C   0  0  0  0  0  0  0  0  0  0  0  0
    2.9012   -2.0770    0.0000 C   0  0  0  0  0  0  0  0  0  0  0  0
    4.0885   -1.1604    0.0000 C   0  0  0  0  0  0  0  0  0  0  0  0
  1  2  1  0
  2  3  2  0
  3  4  1  0
  4  5  2  0
  5  6  1  0
  6  7  2  0
  7  8  1  0
  1  9  1  0
  9 10  2  0
 10 11  1  0
 11 12  1  0
 12 13  2  0
 13 14  1  0
 14 15  2  0
 15 16  1  0
 16 17  2  0
 11 18  1  0
 18 19  2  0
  1 20  1  0
 20 21  2  0
 21 22  1  0
 22 23  2  0
 23 24  1  0
 24 25  2  0
 25 26  1  0
  7  2  1  0
 19  9  1  0
 25 20  1  0
 17 12  1  0
M  END
$$$$
Molecule_106
     RDKit          2D

 40 44  0  0  0  0  0  0  0  0999 V2000
    1.3287   -0.0922    0.0000 P   0  0  0  0  0  0  0  0  0  0  0  0
    1.7477    1.3481    0.0000 C   0  0  0  0  0  0  0  0  0  0  0  0
    3.2045    1.7054    0.0000 C   0  0  0  0  0  0  0  0  0  0  0  0
    4.2424    0.6225    0.0000 N   0  0  0  0  0  0  0  0  0  0  0  0
    4.1844   -0.8764    0.0000 C   0  0  0  0  0  0  0  0  0  0  0  0
    5.6448    1.1547    0.0000 C   0  0  0  0  0  0  0  0  0  0  0  0
    3.6235    3.1457    0.0000 C   0  0  0  0  0  0  0  0  0  0  0  0
    2.5856    4.2287    0.0000 C   0  0  0  0  0  0  0  0  0  0  0  0
    1.1288    3.8714    0.0000 C   0  0  0  0  0  0  0  0  0  0  0  0
    0.7098    2.4311    0.0000 C   0  0  0  0  0  0  0  0  0  0  0  0
   -0.7470    2.0738    0.0000 N   0  0  0  0  0  0  0  0  0  0  0  0
   -1.7848    3.1568    0.0000 C   0  0  0  0  0  0  0  0  0  0  0  0
   -1.1482    1.3850    0.0000 C   0  0  0  0  0  0  0  0  0  0  0  0
   -0.1281   -0.4495    0.0000 C   0  0  0  0  0  0  0  0  0  0  0  0
   -1.1660    0.6335    0.0000 C   0  0  0  0  0  0  0  0  0  0  0  0
   -2.6228    0.2762    0.0000 C   0  0  0  0  0  0  0  0  0  0  0  0
   -3.0417   -1.1641    0.0000 C   0  0  0  0  0  0  0  0  0  0  0  0
   -4.4986   -1.5215    0.0000 C   0  0  0  0  0  0  0  0  0  0  0  0
   -5.1034   -0.1488    0.0000 C   0  0  0  0  0  0  0  0  0  0  0  0
   -4.2171    1.0613    0.0000 C   0  0  0  0  0  0  0  0  0  0  0  0
   -4.8220    2.4340    0.0000 C   0  0  0  0  0  0  0  0  0  0  0  0
   -6.3131    2.5965    0.0000 C   0  0  0  0  0  0  0  0  0  0  0  0
   -7.1995    1.3863    0.0000 C   0  0  0  0  0  0  0  0  0  0  0  0
   -6.5946    0.0137    0.0000 C   0  0  0  0  0  0  0  0  0  0  0  0
   -5.7453   -2.3555    0.0000 C   0  0  0  0  0  0  0  0  0  0  0  0
   -4.3996   -3.0182    0.0000 C   0  0  0  0  0  0  0  0  0  0  0  0
   -2.0039   -2.2471    0.0000 C   0  0  0  0  0  0  0  0  0  0  0  0
   -0.5471   -1.8898    0.0000 C   0  0  0  0  0  0  0  0  0  0  0  0
    2.3666   -1.1752    0.0000 C   0  0  0  0  0  0  0  0  0  0  0  0
    1.9476   -2.6155    0.0000 C   0  0  0  0  0  0  0  0  0  0  0  0
    0.4908   -2.9728    0.0000 N   0  0  0  0  0  0  0  0  0  0  0  0
    0.0718   -4.4131    0.0000 C   0  0  0  0  0  0  0  0  0  0  0  0
   -0.7783   -2.1731    0.0000 C   0  0  0  0  0  0  0  0  0  0  0  0
    2.9855   -3.6985    0.0000 C   0  0  0  0  0  0  0  0  0  0  0  0
    4.4423   -3.3411    0.0000 C   0  0  0  0  0  0  0  0  0  0  0  0
    4.8613   -1.9008    0.0000 C   0  0  0  0  0  0  0  0  0  0  0  0
    3.8234   -0.8178    0.0000 C   0  0  0  0  0  0  0  0  0  0  0  0
    4.2424    0.6225    0.0000 N   0  0  0  0  0  0  0  0  0  0  0  0
    5.7319    0.7995    0.0000 C   0  0  0  0  0  0  0  0  0  0  0  0
    3.4974    1.9244    0.0000 C   0  0  0  0  0  0  0  0  0  0  0  0
  1  2  1  0
  2  3  2  0
  3  4  1  0
  4  5  1  0
  4  6  1  0
  3  7  1  0
  7  8  2  0
  8  9  1  0
  9 10  2  0
 10 11  1  0
 11 12  1  0
 11 13  1  0
  1 14  1  0
 14 15  2  0
 15 16  1  0
 16 17  2  0
 17 18  1  0
 18 19  1  0
 19 20  2  0
 20 21  1  0
 21 22  2  0
 22 23  1  0
 23 24  2  0
 18 25  1  0
 25 26  1  0
 17 27  1  0
 27 28  2  0
  1 29  1  0
 29 30  2  0
 30 31  1  0
 31 32  1  0
 31 33  1  0
 30 34  1  0
 34 35  2  0
 35 36  1  0
 36 37  2  0
 37 38  1  0
 38 39  1  0
 38 40  1  0
 10  2  1  0
 28 14  1  0
 37 29  1  0
 26 18  1  0
 24 19  1  0
M  END
$$$$
Molecule_107
     RDKit          2D

 27 31  0  0  0  0  0  0  0  0999 V2000
    0.0000   -0.8889    0.0000 P   0  0  0  0  0  0  0  0  0  0  0  0
   -1.2990   -1.6389    0.0000 C   0  0  0  0  0  0  0  0  0  0  0  0
   -2.5981   -0.8889    0.0000 C   0  0  0  0  0  0  0  0  0  0  0  0
   -3.8971   -1.6389    0.0000 C   0  0  0  0  0  0  0  0  0  0  0  0
   -3.8971   -3.1389    0.0000 C   0  0  0  0  0  0  0  0  0  0  0  0
   -2.5981   -3.8889    0.0000 C   0  0  0  0  0  0  0  0  0  0  0  0
   -1.2990   -3.1389    0.0000 C   0  0  0  0  0  0  0  0  0  0  0  0
   -0.0000    0.6111    0.0000 C   0  0  0  0  0  0  0  0  0  0  0  0
    1.2990    1.3611    0.0000 C   0  0  0  0  0  0  0  0  0  0  0  0
    2.5981    0.6111    0.0000 C   0  0  0  0  0  0  0  0  0  0  0  0
    3.8971    1.3611    0.0000 C   0  0  0  0  0  0  0  0  0  0  0  0
    3.8971    2.8611    0.0000 C   0  0  0  0  0  0  0  0  0  0  0  0
    2.5981    3.6111    0.0000 C   0  0  0  0  0  0  0  0  0  0  0  0
    1.2990    2.8611    0.0000 C   0  0  0  0  0  0  0  0  0  0  0  0
   -0.0000    3.6111    0.0000 C   0  0  0  0  0  0  0  0  0  0  0  0
   -1.2990    2.8611    0.0000 C   0  0  0  0  0  0  0  0  0  0  0  0
   -2.5981    3.6111    0.0000 C   0  0  0  0  0  0  0  0  0  0  0  0
   -3.8971    2.8611    0.0000 C   0  0  0  0  0  0  0  0  0  0  0  0
   -3.8971    1.3611    0.0000 C   0  0  0  0  0  0  0  0  0  0  0  0
   -2.5981    0.6111    0.0000 C   0  0  0  0  0  0  0  0  0  0  0  0
   -1.2990    1.3611    0.0000 C   0  0  0  0  0  0  0  0  0  0  0  0
    1.2990   -1.6389    0.0000 C   0  0  0  0  0  0  0  0  0  0  0  0
    1.2990   -3.1389    0.0000 C   0  0  0  0  0  0  0  0  0  0  0  0
    2.5981   -3.8889    0.0000 C   0  0  0  0  0  0  0  0  0  0  0  0
    3.8971   -3.1389    0.0000 C   0  0  0  0  0  0  0  0  0  0  0  0
    3.8971   -1.6389    0.0000 C   0  0  0  0  0  0  0  0  0  0  0  0
    2.5981   -0.8889    0.0000 C   0  0  0  0  0  0  0  0  0  0  0  0
  1  2  1  0
  2  3  2  0
  3  4  1  0
  4  5  2  0
  5  6  1  0
  6  7  2  0
  1  8  1  0
  8  9  1  0
  9 10  2  0
 10 11  1  0
 11 12  2  0
 12 13  1  0
 13 14  2  0
 14 15  1  0
 15 16  2  0
 16 17  1  0
 17 18  2  0
 18 19  1  0
 19 20  2  0
 20 21  1  0
  1 22  1  0
 22 23  2  0
 23 24  1  0
 24 25  2  0
 25 26  1  0
 26 27  2  0
  7  2  1  0
 21  8  2  0
 27 22  1  0
 14  9  1  0
 21 16  1  0
M  END
$$$$
Molecule_108
     RDKit          2D

 35 39  0  0  0  0  0  0  0  0999 V2000
   -0.2728    0.1172    0.0000 P   0  0  0  0  0  0  0  0  0  0  0  0
   -1.7624   -0.0594    0.0000 C   0  0  0  0  0  0  0  0  0  0  0  0
   -2.6601    1.1424    0.0000 C   0  0  0  0  0  0  0  0  0  0  0  0
   -4.1496    0.9659    0.0000 C   0  0  0  0  0  0  0  0  0  0  0  0
   -4.7416   -0.4124    0.0000 C   0  0  0  0  0  0  0  0  0  0  0  0
   -3.8439   -1.6142    0.0000 C   0  0  0  0  0  0  0  0  0  0  0  0
   -4.4358   -2.9924    0.0000 O   0  0  0  0  0  0  0  0  0  0  0  0
   -5.9254   -3.1690    0.0000 C   0  0  0  0  0  0  0  0  0  0  0  0
   -6.5173   -4.5472    0.0000 C   0  0  0  0  0  0  0  0  0  0  0  0
   -6.8230   -1.9672    0.0000 C   0  0  0  0  0  0  0  0  0  0  0  0
   -2.3543   -1.4376    0.0000 C   0  0  0  0  0  0  0  0  0  0  0  0
    0.3191    1.4954    0.0000 C   0  0  0  0  0  0  0  0  0  0  0  0
    1.8087    1.6720    0.0000 C   0  0  0  0  0  0  0  0  0  0  0  0
    2.7063    0.4702    0.0000 C   0  0  0  0  0  0  0  0  0  0  0  0
    4.1959    0.6468    0.0000 C   0  0  0  0  0  0  0  0  0  0  0  0
    4.7878    2.0250    0.0000 C   0  0  0  0  0  0  0  0  0  0  0  0
    3.8901    3.2268    0.0000 C   0  0  0  0  0  0  0  0  0  0  0  0
    2.4006    3.0502    0.0000 C   0  0  0  0  0  0  0  0  0  0  0  0
    1.5029    4.2520    0.0000 C   0  0  0  0  0  0  0  0  0  0  0  0
    0.0133    4.0755    0.0000 C   0  0  0  0  0  0  0  0  0  0  0  0
   -0.8843    5.2772    0.0000 C   0  0  0  0  0  0  0  0  0  0  0  0
   -2.3739    5.1007    0.0000 C   0  0  0  0  0  0  0  0  0  0  0  0
   -2.9658    3.7224    0.0000 C   0  0  0  0  0  0  0  0  0  0  0  0
   -2.0682    2.5207    0.0000 C   0  0  0  0  0  0  0  0  0  0  0  0
   -0.5786    2.6972    0.0000 C   0  0  0  0  0  0  0  0  0  0  0  0
    0.6248   -1.0846    0.0000 C   0  0  0  0  0  0  0  0  0  0  0  0
    0.0329   -2.4629    0.0000 C   0  0  0  0  0  0  0  0  0  0  0  0
    0.9306   -3.6646    0.0000 C   0  0  0  0  0  0  0  0  0  0  0  0
    2.4202   -3.4881    0.0000 C   0  0  0  0  0  0  0  0  0  0  0  0
    3.0121   -2.1098    0.0000 C   0  0  0  0  0  0  0  0  0  0  0  0
    4.5017   -1.9333    0.0000 O   0  0  0  0  0  0  0  0  0  0  0  0
    5.3993   -3.1350    0.0000 C   0  0  0  0  0  0  0  0  0  0  0  0
    6.8889   -2.9585    0.0000 C   0  0  0  0  0  0  0  0  0  0  0  0
    4.8074   -4.5133    0.0000 C   0  0  0  0  0  0  0  0  0  0  0  0
    2.1144   -0.9080    0.0000 C   0  0  0  0  0  0  0  0  0  0  0  0
  1  2  1  0
  2  3  2  0
  3  4  1  0
  4  5  2  0
  5  6  1  0
  6  7  1  0
  7  8  1  0
  8  9  1  0
  8 10  1  0
  6 11  2  0
  1 12  1  0
 12 13  1  0
 13 14  2  0
 14 15  1  0
 15 16  2  0
 16 17  1  0
 17 18  2  0
 18 19  1  0
 19 20  2  0
 20 21  1  0
 21 22  2  0
 22 23  1  0
 23 24  2  0
 24 25  1  0
  1 26  1  0
 26 27  2  0
 27 28  1  0
 28 29  2  0
 29 30  1  0
 30 31  1  0
 31 32  1  0
 32 33  1  0
 32 34  1  0
 30 35  2  0
 11  2  1  0
 25 12  2  0
 35 26  1  0
 18 13  1  0
 25 20  1  0
M  END
$$$$
Molecule_109
     RDKit          2D

 38 44  0  0  0  0  0  0  0  0999 V2000
   -1.0039    0.3167    0.0000 P   0  0  0  0  0  0  0  0  0  0  0  0
   -0.9285   -1.1814    0.0000 C   0  0  0  0  0  0  0  0  0  0  0  0
    0.3278   -2.0010    0.0000 N   0  0  0  0  0  0  0  0  0  0  0  0
   -0.0635   -3.4491    0.0000 N   0  0  0  0  0  0  0  0  0  0  0  0
    0.8781   -4.6168    0.0000 C   0  0  0  0  0  0  0  0  0  0  0  0
    0.3376   -6.0160    0.0000 C   0  0  0  0  0  0  0  0  0  0  0  0
    1.2792   -7.1837    0.0000 C   0  0  0  0  0  0  0  0  0  0  0  0
    2.7612   -6.9521    0.0000 C   0  0  0  0  0  0  0  0  0  0  0  0
    3.3016   -5.5529    0.0000 C   0  0  0  0  0  0  0  0  0  0  0  0
    2.3601   -4.3852    0.0000 C   0  0  0  0  0  0  0  0  0  0  0  0
   -1.5616   -3.5245    0.0000 C   0  0  0  0  0  0  0  0  0  0  0  0
   -2.0962   -2.1230    0.0000 C   0  0  0  0  0  0  0  0  0  0  0  0
    0.2558    1.1310    0.0000 C   0  0  0  0  0  0  0  0  0  0  0  0
    1.5909    0.4472    0.0000 C   0  0  0  0  0  0  0  0  0  0  0  0
    2.8506    1.2616    0.0000 C   0  0  0  0  0  0  0  0  0  0  0  0
    2.7752    2.7597    0.0000 C   0  0  0  0  0  0  0  0  0  0  0  0
    4.0349    3.5740    0.0000 C   0  0  0  0  0  0  0  0  0  0  0  0
    5.0556    2.4749    0.0000 C   0  0  0  0  0  0  0  0  0  0  0  0
    4.6141    1.0413    0.0000 C   0  0  0  0  0  0  0  0  0  0  0  0
    5.6348   -0.0578    0.0000 C   0  0  0  0  0  0  0  0  0  0  0  0
    7.0970    0.2765    0.0000 C   0  0  0  0  0  0  0  0  0  0  0  0
    7.5386    1.7101    0.0000 C   0  0  0  0  0  0  0  0  0  0  0  0
    6.5179    2.8092    0.0000 C   0  0  0  0  0  0  0  0  0  0  0  0
    4.9401    4.7701    0.0000 C   0  0  0  0  0  0  0  0  0  0  0  0
    3.4517    4.9560    0.0000 C   0  0  0  0  0  0  0  0  0  0  0  0
    1.4401    3.4435    0.0000 C   0  0  0  0  0  0  0  0  0  0  0  0
    0.1804    2.6291    0.0000 C   0  0  0  0  0  0  0  0  0  0  0  0
   -2.3390    1.0005    0.0000 C   0  0  0  0  0  0  0  0  0  0  0  0
   -3.6769    0.3223    0.0000 N   0  0  0  0  0  0  0  0  0  0  0  0
   -4.7354    1.3851    0.0000 N   0  0  0  0  0  0  0  0  0  0  0  0
   -6.2174    1.1536    0.0000 C   0  0  0  0  0  0  0  0  0  0  0  0
   -7.1589    2.3212    0.0000 C   0  0  0  0  0  0  0  0  0  0  0  0
   -8.6409    2.0897    0.0000 C   0  0  0  0  0  0  0  0  0  0  0  0
   -9.1814    0.6904    0.0000 C   0  0  0  0  0  0  0  0  0  0  0  0
   -8.2399   -0.4772    0.0000 C   0  0  0  0  0  0  0  0  0  0  0  0
   -6.7578   -0.2457    0.0000 C   0  0  0  0  0  0  0  0  0  0  0  0
   -4.0516    2.7202    0.0000 C   0  0  0  0  0  0  0  0  0  0  0  0
   -2.5705    2.4825    0.0000 C   0  0  0  0  0  0  0  0  0  0  0  0
  1  2  1  0
  2  3  2  0
  3  4  1  0
  4  5  1  0
  5  6  2  0
  6  7  1  0
  7  8  2  0
  8  9  1  0
  9 10  2  0
  4 11  1  0
 11 12  2  0
  1 13  1  0
 13 14  2  0
 14 15  1  0
 15 16  2  0
 16 17  1  0
 17 18  1  0
 18 19  2  0
 19 20  1  0
 20 21  2  0
 21 22  1  0
 22 23  2  0
 17 24  1  0
 24 25  1  0
 16 26  1  0
 26 27  2  0
  1 28  1  0
 28 29  2  0
 29 30  1  0
 30 31  1  0
 31 32  2  0
 32 33  1  0
 33 34  2  0
 34 35  1  0
 35 36  2  0
 30 37  1  0
 37 38  2  0
 12  2  1  0
 27 13  1  0
 38 28  1  0
 10  5  1  0
 25 17  1  0
 36 31  1  0
 23 18  1  0
M  END
$$$$
Molecule_110
     RDKit          2D

 28 31  0  0  0  0  0  0  0  0999 V2000
   -0.0000    0.8431    0.0000 P   0  0  0  0  0  0  0  0  0  0  0  0
    1.2990    1.5931    0.0000 C   0  0  0  0  0  0  0  0  0  0  0  0
    1.2990    3.0931    0.0000 C   0  0  0  0  0  0  0  0  0  0  0  0
    2.5981    3.8431    0.0000 C   0  0  0  0  0  0  0  0  0  0  0  0
    3.8971    3.0931    0.0000 C   0  0  0  0  0  0  0  0  0  0  0  0
    3.8971    1.5931    0.0000 C   0  0  0  0  0  0  0  0  0  0  0  0
    2.5981    0.8431    0.0000 C   0  0  0  0  0  0  0  0  0  0  0  0
    2.5981   -0.6569    0.0000 N   0  0  0  0  0  0  0  0  0  0  0  0
    3.8971   -1.4069    0.0000 C   0  0  0  0  0  0  0  0  0  0  0  0
    3.8971   -2.9069    0.0000 C   0  0  0  0  0  0  0  0  0  0  0  0
    2.5981   -3.6569    0.0000 C   0  0  0  0  0  0  0  0  0  0  0  0
    1.2990   -2.9069    0.0000 C   0  0  0  0  0  0  0  0  0  0  0  0
    1.2990   -1.4069    0.0000 C   0  0  0  0  0  0  0  0  0  0  0  0
   -0.0000   -0.6569    0.0000 C   0  0  0  0  0  0  0  0  0  0  0  0
   -0.5734   -1.2107    0.0000 C   0  0  0  0  0  0  0  0  0  0  0  0
    0.5734   -1.2107    0.0000 C   0  0  0  0  0  0  0  0  0  0  0  0
   -1.2990    1.5931    0.0000 C   0  0  0  0  0  0  0  0  0  0  0  0
   -1.2990    3.0931    0.0000 C   0  0  0  0  0  0  0  0  0  0  0  0
   -2.5981    3.8431    0.0000 C   0  0  0  0  0  0  0  0  0  0  0  0
   -3.8971    3.0931    0.0000 C   0  0  0  0  0  0  0  0  0  0  0  0
   -3.8971    1.5931    0.0000 C   0  0  0  0  0  0  0  0  0  0  0  0
   -2.5981    0.8431    0.0000 C   0  0  0  0  0  0  0  0  0  0  0  0
   -2.5981   -0.6569    0.0000 N   0  0  0  0  0  0  0  0  0  0  0  0
   -3.8971   -1.4069    0.0000 C   0  0  0  0  0  0  0  0  0  0  0  0
   -3.8971   -2.9069    0.0000 C   0  0  0  0  0  0  0  0  0  0  0  0
   -2.5981   -3.6569    0.0000 C   0  0  0  0  0  0  0  0  0  0  0  0
   -1.2990   -2.9069    0.0000 C   0  0  0  0  0  0  0  0  0  0  0  0
   -1.2990   -1.4069    0.0000 C   0  0  0  0  0  0  0  0  0  0  0  0
  1  2  1  0
  2  3  2  0
  3  4  1  0
  4  5  2  0
  5  6  1  0
  6  7  2  0
  7  8  1  0
  8  9  1  0
  9 10  1  0
 10 11  1  0
 11 12  1  0
 12 13  1  0
  1 14  1  0
 14 15  1  0
 14 16  1  0
  1 17  1  0
 17 18  2  0
 18 19  1  0
 19 20  2  0
 20 21  1  0
 21 22  2  0
 22 23  1  0
 23 24  1  0
 24 25  1  0
 25 26  1  0
 26 27  1  0
 27 28  1  0
  7  2  1  0
 13  8  1  0
 22 17  1  0
 28 23  1  0
M  END
$$$$
Molecule_111
     RDKit          2D

 44 50  0  0  0  0  0  0  0  0999 V2000
   -0.3244    0.7936    0.0000 P   0  0  0  0  0  0  0  0  0  0  0  0
   -1.2427   -0.3924    0.0000 C   0  0  0  0  0  0  0  0  0  0  0  0
   -0.8230   -1.8325    0.0000 C   0  0  0  0  0  0  0  0  0  0  0  0
    0.5887   -2.3394    0.0000 C   0  0  0  0  0  0  0  0  0  0  0  0
    0.8556   -3.8154    0.0000 C   0  0  0  0  0  0  0  0  0  0  0  0
    2.2674   -4.3223    0.0000 C   0  0  0  0  0  0  0  0  0  0  0  0
    3.4123   -3.3532    0.0000 C   0  0  0  0  0  0  0  0  0  0  0  0
    3.1454   -1.8771    0.0000 C   0  0  0  0  0  0  0  0  0  0  0  0
    1.7336   -1.3702    0.0000 C   0  0  0  0  0  0  0  0  0  0  0  0
   -2.0629   -2.6767    0.0000 N   0  0  0  0  0  0  0  0  0  0  0  0
   -3.2489   -1.7583    0.0000 N   0  0  0  0  0  0  0  0  0  0  0  0
   -4.6890   -2.1780    0.0000 C   0  0  0  0  0  0  0  0  0  0  0  0
   -5.7725   -1.1407    0.0000 C   0  0  0  0  0  0  0  0  0  0  0  0
   -7.2126   -1.5605    0.0000 C   0  0  0  0  0  0  0  0  0  0  0  0
   -7.5692   -3.0175    0.0000 C   0  0  0  0  0  0  0  0  0  0  0  0
   -6.4856   -4.0548    0.0000 C   0  0  0  0  0  0  0  0  0  0  0  0
   -5.0456   -3.6350    0.0000 C   0  0  0  0  0  0  0  0  0  0  0  0
   -2.7420   -0.3466    0.0000 C   0  0  0  0  0  0  0  0  0  0  0  0
   -0.8923    2.1820    0.0000 C   0  0  0  0  0  0  0  0  0  0  0  0
    0.0260    3.3680    0.0000 C   0  0  0  0  0  0  0  0  0  0  0  0
   -0.5419    4.7563    0.0000 C   0  0  0  0  0  0  0  0  0  0  0  0
   -2.0282    4.9586    0.0000 C   0  0  0  0  0  0  0  0  0  0  0  0
   -2.9466    3.7726    0.0000 C   0  0  0  0  0  0  0  0  0  0  0  0
   -2.3786    2.3843    0.0000 C   0  0  0  0  0  0  0  0  0  0  0  0
   -3.2970    1.1982    0.0000 N   0  0  0  0  0  0  0  0  0  0  0  0
   -3.1558    0.2243    0.0000 C   0  0  0  0  0  0  0  0  0  0  0  0
   -4.7833    1.4005    0.0000 C   0  0  0  0  0  0  0  0  0  0  0  0
    1.1619    0.5913    0.0000 C   0  0  0  0  0  0  0  0  0  0  0  0
    2.1992    1.6749    0.0000 C   0  0  0  0  0  0  0  0  0  0  0  0
    1.9323    3.1509    0.0000 C   0  0  0  0  0  0  0  0  0  0  0  0
    3.0772    4.1201    0.0000 C   0  0  0  0  0  0  0  0  0  0  0  0
    2.8103    5.5962    0.0000 C   0  0  0  0  0  0  0  0  0  0  0  0
    1.3985    6.1031    0.0000 C   0  0  0  0  0  0  0  0  0  0  0  0
    0.2537    5.1339    0.0000 C   0  0  0  0  0  0  0  0  0  0  0  0
    0.5205    3.6578    0.0000 C   0  0  0  0  0  0  0  0  0  0  0  0
    3.5502    1.0232    0.0000 N   0  0  0  0  0  0  0  0  0  0  0  0
    3.3479   -0.4631    0.0000 N   0  0  0  0  0  0  0  0  0  0  0  0
    4.4315   -1.5004    0.0000 C   0  0  0  0  0  0  0  0  0  0  0  0
    4.0749   -2.9574    0.0000 C   0  0  0  0  0  0  0  0  0  0  0  0
    5.1584   -3.9947    0.0000 C   0  0  0  0  0  0  0  0  0  0  0  0
    6.5985   -3.5750    0.0000 C   0  0  0  0  0  0  0  0  0  0  0  0
    6.9551   -2.1180    0.0000 C   0  0  0  0  0  0  0  0  0  0  0  0
    5.8715   -1.0807    0.0000 C   0  0  0  0  0  0  0  0  0  0  0  0
    1.8719   -0.7300    0.0000 C   0  0  0  0  0  0  0  0  0  0  0  0
  1  2  1  0
  2  3  1  0
  3  4  1  0
  4  5  2  0
  5  6  1  0
  6  7  2  0
  7  8  1  0
  8  9  2  0
  3 10  2  0
 10 11  1  0
 11 12  1  0
 12 13  2  0
 13 14  1  0
 14 15  2  0
 15 16  1  0
 16 17  2  0
 11 18  1  0
  1 19  1  0
 19 20  2  0
 20 21  1  0
 21 22  2  0
 22 23  1  0
 23 24  2  0
 24 25  1  0
 25 26  1  0
 25 27  1  0
  1 28  1  0
 28 29  1  0
 29 30  1  0
 30 31  2  0
 31 32  1  0
 32 33  2  0
 33 34  1  0
 34 35  2  0
 29 36  2  0
 36 37  1  0
 37 38  1  0
 38 39  2  0
 39 40  1  0
 40 41  2  0
 41 42  1  0
 42 43  2  0
 37 44  1  0
 18  2  2  0
 24 19  1  0
 44 28  2  0
  9  4  1  0
 17 12  1  0
 35 30  1  0
 43 38  1  0
M  END
$$$$
Molecule_112
     RDKit          2D

 41 43  0  0  0  0  0  0  0  0999 V2000
    0.1313   -0.0226    0.0000 P   0  0  0  0  0  0  0  0  0  0  0  0
    1.0533   -1.2059    0.0000 C   0  0  0  0  0  0  0  0  0  0  0  0
    0.4896   -2.5959    0.0000 C   0  0  0  0  0  0  0  0  0  0  0  0
   -0.9961   -2.8027    0.0000 O   0  0  0  0  0  0  0  0  0  0  0  0
   -1.9181   -1.6195    0.0000 C   0  0  0  0  0  0  0  0  0  0  0  0
   -3.3095   -2.1797    0.0000 C   0  0  0  0  0  0  0  0  0  0  0  0
   -1.7074   -0.1344    0.0000 C   0  0  0  0  0  0  0  0  0  0  0  0
    1.4115   -3.7791    0.0000 C   0  0  0  0  0  0  0  0  0  0  0  0
    2.8972   -3.5723    0.0000 C   0  0  0  0  0  0  0  0  0  0  0  0
    3.4609   -2.1823    0.0000 C   0  0  0  0  0  0  0  0  0  0  0  0
    2.5390   -0.9990    0.0000 C   0  0  0  0  0  0  0  0  0  0  0  0
    3.1027    0.3910    0.0000 O   0  0  0  0  0  0  0  0  0  0  0  0
    4.5884    0.5978    0.0000 C   0  0  0  0  0  0  0  0  0  0  0  0
    5.1521    1.9879    0.0000 C   0  0  0  0  0  0  0  0  0  0  0  0
    5.5103   -0.5854    0.0000 C   0  0  0  0  0  0  0  0  0  0  0  0
    0.6951    1.3674    0.0000 C   0  0  0  0  0  0  0  0  0  0  0  0
    2.1807    1.5742    0.0000 C   0  0  0  0  0  0  0  0  0  0  0  0
    3.1027    0.3910    0.0000 N   0  0  0  0  0  0  0  0  0  0  0  0
    4.4942    0.9512    0.0000 C   0  0  0  0  0  0  0  0  0  0  0  0
    2.8921   -1.0941    0.0000 C   0  0  0  0  0  0  0  0  0  0  0  0
    2.7445    2.9643    0.0000 C   0  0  0  0  0  0  0  0  0  0  0  0
    1.8225    4.1475    0.0000 C   0  0  0  0  0  0  0  0  0  0  0  0
    0.3368    3.9407    0.0000 C   0  0  0  0  0  0  0  0  0  0  0  0
   -0.2269    2.5506    0.0000 C   0  0  0  0  0  0  0  0  0  0  0  0
   -1.7126    2.3438    0.0000 N   0  0  0  0  0  0  0  0  0  0  0  0
   -2.3208    3.7149    0.0000 C   0  0  0  0  0  0  0  0  0  0  0  0
   -2.5959    1.1315    0.0000 C   0  0  0  0  0  0  0  0  0  0  0  0
   -1.3543   -0.2295    0.0000 C   0  0  0  0  0  0  0  0  0  0  0  0
   -2.2763    0.9537    0.0000 C   0  0  0  0  0  0  0  0  0  0  0  0
   -1.7126    2.3438    0.0000 O   0  0  0  0  0  0  0  0  0  0  0  0
   -2.6345    3.5270    0.0000 C   0  0  0  0  0  0  0  0  0  0  0  0
   -2.0708    4.9171    0.0000 C   0  0  0  0  0  0  0  0  0  0  0  0
   -4.1202    3.3202    0.0000 C   0  0  0  0  0  0  0  0  0  0  0  0
   -3.7620    0.7469    0.0000 C   0  0  0  0  0  0  0  0  0  0  0  0
   -4.3257   -0.6431    0.0000 C   0  0  0  0  0  0  0  0  0  0  0  0
   -3.4037   -1.8263    0.0000 C   0  0  0  0  0  0  0  0  0  0  0  0
   -1.9181   -1.6195    0.0000 C   0  0  0  0  0  0  0  0  0  0  0  0
   -0.9961   -2.8027    0.0000 O   0  0  0  0  0  0  0  0  0  0  0  0
   -1.5598   -4.1928    0.0000 C   0  0  0  0  0  0  0  0  0  0  0  0
   -0.6379   -5.3760    0.0000 C   0  0  0  0  0  0  0  0  0  0  0  0
   -3.0455   -4.3996    0.0000 C   0  0  0  0  0  0  0  0  0  0  0  0
  1  2  1  0
  2  3  2  0
  3  4  1  0
  4  5  1  0
  5  6  1  0
  5  7  1  0
  3  8  1  0
  8  9  2  0
  9 10  1  0
 10 11  2  0
 11 12  1  0
 12 13  1  0
 13 14  1  0
 13 15  1  0
  1 16  1  0
 16 17  2  0
 17 18  1  0
 18 19  1  0
 18 20  1  0
 17 21  1  0
 21 22  2  0
 22 23  1  0
 23 24  2  0
 24 25  1  0
 25 26  1  0
 25 27  1  0
  1 28  1  0
 28 29  2  0
 29 30  1  0
 30 31  1  0
 31 32  1  0
 31 33  1  0
 29 34  1  0
 34 35  2  0
 35 36  1  0
 36 37  2  0
 37 38  1  0
 38 39  1  0
 39 40  1  0
 39 41  1  0
 11  2  1  0
 24 16  1  0
 37 28  1  0
M  END
$$$$
Molecule_113
     RDKit          2D

 25 28  0  0  0  0  0  0  0  0999 V2000
    0.9525   -0.0000    0.0000 P   0  0  0  0  0  0  0  0  0  0  0  0
    2.3698    0.4910    0.0000 C   0  0  0  0  0  0  0  0  0  0  0  0
    3.5037   -0.4910    0.0000 C   0  0  0  0  0  0  0  0  0  0  0  0
    4.9211   -0.0000    0.0000 C   0  0  0  0  0  0  0  0  0  0  0  0
    5.2046    1.4730    0.0000 C   0  0  0  0  0  0  0  0  0  0  0  0
    4.0707    2.4550    0.0000 C   0  0  0  0  0  0  0  0  0  0  0  0
    2.6533    1.9640    0.0000 C   0  0  0  0  0  0  0  0  0  0  0  0
    0.6690   -1.4730    0.0000 C   0  0  0  0  0  0  0  0  0  0  0  0
    1.8029   -2.4550    0.0000 C   0  0  0  0  0  0  0  0  0  0  0  0
    1.5194   -3.9279    0.0000 C   0  0  0  0  0  0  0  0  0  0  0  0
    0.1021   -4.4189    0.0000 C   0  0  0  0  0  0  0  0  0  0  0  0
   -1.0318   -3.4369    0.0000 C   0  0  0  0  0  0  0  0  0  0  0  0
   -0.7484   -1.9640    0.0000 C   0  0  0  0  0  0  0  0  0  0  0  0
   -1.8823   -0.9820    0.0000 N   0  0  0  0  0  0  0  0  0  0  0  0
   -3.2996   -1.4730    0.0000 C   0  0  0  0  0  0  0  0  0  0  0  0
   -4.4335   -0.4910    0.0000 C   0  0  0  0  0  0  0  0  0  0  0  0
   -4.1500    0.9820    0.0000 C   0  0  0  0  0  0  0  0  0  0  0  0
   -2.7327    1.4730    0.0000 C   0  0  0  0  0  0  0  0  0  0  0  0
   -1.5988    0.4910    0.0000 C   0  0  0  0  0  0  0  0  0  0  0  0
   -0.1814    0.9820    0.0000 C   0  0  0  0  0  0  0  0  0  0  0  0
    0.1021    2.4550    0.0000 C   0  0  0  0  0  0  0  0  0  0  0  0
   -1.0318    3.4369    0.0000 C   0  0  0  0  0  0  0  0  0  0  0  0
   -2.4492    2.9459    0.0000 C   0  0  0  0  0  0  0  0  0  0  0  0
   -2.7327    1.4730    0.0000 C   0  0  0  0  0  0  0  0  0  0  0  0
   -1.5988    0.4910    0.0000 C   0  0  0  0  0  0  0  0  0  0  0  0
  1  2  1  0
  2  3  2  0
  3  4  1  0
  4  5  2  0
  5  6  1  0
  6  7  2  0
  1  8  1  0
  8  9  2  0
  9 10  1  0
 10 11  2  0
 11 12  1  0
 12 13  2  0
 13 14  1  0
 14 15  1  0
 15 16  1  0
 16 17  1  0
 17 18  1  0
 18 19  1  0
  1 20  1  0
 20 21  2  0
 21 22  1  0
 22 23  2  0
 23 24  1  0
 24 25  2  0
  7  2  1  0
 13  8  1  0
 19 14  1  0
 25 20  1  0
M  END
$$$$
Molecule_114
     RDKit          2D

 39 41  0  0  0  0  0  0  0  0999 V2000
   -0.1289    0.0563    0.0000 P   0  0  0  0  0  0  0  0  0  0  0  0
   -0.7196    1.4351    0.0000 C   0  0  0  0  0  0  0  0  0  0  0  0
    0.1790    2.6361    0.0000 C   0  0  0  0  0  0  0  0  0  0  0  0
    1.6685    2.4583    0.0000 O   0  0  0  0  0  0  0  0  0  0  0  0
    2.2592    1.0795    0.0000 C   0  0  0  0  0  0  0  0  0  0  0  0
    3.7474    1.2675    0.0000 C   0  0  0  0  0  0  0  0  0  0  0  0
    1.6779   -0.3032    0.0000 C   0  0  0  0  0  0  0  0  0  0  0  0
   -0.4117    4.0148    0.0000 C   0  0  0  0  0  0  0  0  0  0  0  0
   -1.9012    4.1926    0.0000 C   0  0  0  0  0  0  0  0  0  0  0  0
   -2.7998    2.9916    0.0000 C   0  0  0  0  0  0  0  0  0  0  0  0
   -2.2091    1.6128    0.0000 C   0  0  0  0  0  0  0  0  0  0  0  0
   -3.1077    0.4118    0.0000 O   0  0  0  0  0  0  0  0  0  0  0  0
   -4.5971    0.5896    0.0000 C   0  0  0  0  0  0  0  0  0  0  0  0
   -5.4958   -0.6114    0.0000 C   0  0  0  0  0  0  0  0  0  0  0  0
   -5.1879    1.9683    0.0000 C   0  0  0  0  0  0  0  0  0  0  0  0
   -1.0275   -1.1447    0.0000 C   0  0  0  0  0  0  0  0  0  0  0  0
   -2.5169   -0.9669    0.0000 C   0  0  0  0  0  0  0  0  0  0  0  0
   -3.1077    0.4118    0.0000 O   0  0  0  0  0  0  0  0  0  0  0  0
   -4.5959    0.2239    0.0000 C   0  0  0  0  0  0  0  0  0  0  0  0
   -3.4156   -2.1679    0.0000 C   0  0  0  0  0  0  0  0  0  0  0  0
   -2.8248   -3.5467    0.0000 C   0  0  0  0  0  0  0  0  0  0  0  0
   -1.3354   -3.7245    0.0000 C   0  0  0  0  0  0  0  0  0  0  0  0
   -0.4367   -2.5235    0.0000 C   0  0  0  0  0  0  0  0  0  0  0  0
    1.0527   -2.7012    0.0000 O   0  0  0  0  0  0  0  0  0  0  0  0
    1.2923   -4.1820    0.0000 C   0  0  0  0  0  0  0  0  0  0  0  0
    1.3606   -0.1215    0.0000 C   0  0  0  0  0  0  0  0  0  0  0  0
    1.9513   -1.5002    0.0000 C   0  0  0  0  0  0  0  0  0  0  0  0
    1.0527   -2.7012    0.0000 O   0  0  0  0  0  0  0  0  0  0  0  0
    1.6435   -4.0800    0.0000 C   0  0  0  0  0  0  0  0  0  0  0  0
    0.7448   -5.2810    0.0000 C   0  0  0  0  0  0  0  0  0  0  0  0
    3.1329   -4.2578    0.0000 C   0  0  0  0  0  0  0  0  0  0  0  0
    3.4408   -1.6780    0.0000 C   0  0  0  0  0  0  0  0  0  0  0  0
    4.3394   -0.4770    0.0000 C   0  0  0  0  0  0  0  0  0  0  0  0
    3.7487    0.9018    0.0000 C   0  0  0  0  0  0  0  0  0  0  0  0
    2.2592    1.0795    0.0000 C   0  0  0  0  0  0  0  0  0  0  0  0
    1.6685    2.4583    0.0000 O   0  0  0  0  0  0  0  0  0  0  0  0
    2.5671    3.6593    0.0000 C   0  0  0  0  0  0  0  0  0  0  0  0
    1.9764    5.0381    0.0000 C   0  0  0  0  0  0  0  0  0  0  0  0
    4.0566    3.4816    0.0000 C   0  0  0  0  0  0  0  0  0  0  0  0
  1  2  1  0
  2  3  2  0
  3  4  1  0
  4  5  1  0
  5  6  1  0
  5  7  1  0
  3  8  1  0
  8  9  2  0
  9 10  1  0
 10 11  2  0
 11 12  1  0
 12 13  1  0
 13 14  1  0
 13 15  1  0
  1 16  1  0
 16 17  2  0
 17 18  1  0
 18 19  1  0
 17 20  1  0
 20 21  2  0
 21 22  1  0
 22 23  2  0
 23 24  1  0
 24 25  1  0
  1 26  1  0
 26 27  2  0
 27 28  1  0
 28 29  1  0
 29 30  1  0
 29 31  1  0
 27 32  1  0
 32 33  2  0
 33 34  1  0
 34 35  2  0
 35 36  1  0
 36 37  1  0
 37 38  1  0
 37 39  1  0
 11  2  1  0
 23 16  1  0
 35 26  1  0
M  END
$$$$
Molecule_115
     RDKit          2D

 32 36  0  0  0  0  0  0  0  0999 V2000
    0.0085   -0.6562    0.0000 P   0  0  0  0  0  0  0  0  0  0  0  0
    0.9516   -1.8227    0.0000 C   0  0  0  0  0  0  0  0  0  0  0  0
    0.4129   -3.2226    0.0000 C   0  0  0  0  0  0  0  0  0  0  0  0
    1.3560   -4.3891    0.0000 C   0  0  0  0  0  0  0  0  0  0  0  0
    2.8377   -4.1556    0.0000 C   0  0  0  0  0  0  0  0  0  0  0  0
    3.3763   -2.7556    0.0000 C   0  0  0  0  0  0  0  0  0  0  0  0
    2.4333   -1.5892    0.0000 C   0  0  0  0  0  0  0  0  0  0  0  0
    2.9719   -0.1892    0.0000 N   0  0  0  0  0  0  0  0  0  0  0  0
    4.4536    0.0443    0.0000 C   0  0  0  0  0  0  0  0  0  0  0  0
    4.9923    1.4442    0.0000 C   0  0  0  0  0  0  0  0  0  0  0  0
    4.0492    2.6107    0.0000 C   0  0  0  0  0  0  0  0  0  0  0  0
    2.5675    2.3772    0.0000 C   0  0  0  0  0  0  0  0  0  0  0  0
    2.0289    0.9772    0.0000 C   0  0  0  0  0  0  0  0  0  0  0  0
   -1.4732   -0.8897    0.0000 C   0  0  0  0  0  0  0  0  0  0  0  0
   -2.4163    0.2768    0.0000 C   0  0  0  0  0  0  0  0  0  0  0  0
   -3.8980    0.0433    0.0000 C   0  0  0  0  0  0  0  0  0  0  0  0
   -4.4367   -1.3567    0.0000 C   0  0  0  0  0  0  0  0  0  0  0  0
   -3.4936   -2.5231    0.0000 C   0  0  0  0  0  0  0  0  0  0  0  0
   -2.0119   -2.2896    0.0000 C   0  0  0  0  0  0  0  0  0  0  0  0
   -1.0688   -3.4561    0.0000 C   0  0  0  0  0  0  0  0  0  0  0  0
    0.5471    0.7438    0.0000 C   0  0  0  0  0  0  0  0  0  0  0  0
    2.0289    0.9772    0.0000 C   0  0  0  0  0  0  0  0  0  0  0  0
    2.5675    2.3772    0.0000 C   0  0  0  0  0  0  0  0  0  0  0  0
    1.6245    3.5436    0.0000 C   0  0  0  0  0  0  0  0  0  0  0  0
    0.1427    3.3102    0.0000 C   0  0  0  0  0  0  0  0  0  0  0  0
   -0.3959    1.9102    0.0000 C   0  0  0  0  0  0  0  0  0  0  0  0
   -1.8776    1.6767    0.0000 N   0  0  0  0  0  0  0  0  0  0  0  0
   -2.8207    2.8432    0.0000 C   0  0  0  0  0  0  0  0  0  0  0  0
   -4.3024    2.6097    0.0000 C   0  0  0  0  0  0  0  0  0  0  0  0
   -4.8411    1.2098    0.0000 C   0  0  0  0  0  0  0  0  0  0  0  0
   -3.8980    0.0433    0.0000 C   0  0  0  0  0  0  0  0  0  0  0  0
   -2.4163    0.2768    0.0000 C   0  0  0  0  0  0  0  0  0  0  0  0
  1  2  1  0
  2  3  2  0
  3  4  1  0
  4  5  2  0
  5  6  1  0
  6  7  2  0
  7  8  1  0
  8  9  1  0
  9 10  1  0
 10 11  1  0
 11 12  1  0
 12 13  1  0
  1 14  1  0
 14 15  2  0
 15 16  1  0
 16 17  2  0
 17 18  1  0
 18 19  2  0
 19 20  1  0
  1 21  1  0
 21 22  2  0
 22 23  1  0
 23 24  2  0
 24 25  1  0
 25 26  2  0
 26 27  1  0
 27 28  1  0
 28 29  1  0
 29 30  1  0
 30 31  1  0
 31 32  1  0
  7  2  1  0
 13  8  1  0
 19 14  1  0
 26 21  1  0
 32 27  1  0
M  END
$$$$
Molecule_116
     RDKit          2D

 46 53  0  0  0  0  0  0  0  0999 V2000
   -0.0000    0.8769    0.0000 P   0  0  0  0  0  0  0  0  0  0  0  0
    1.4852    0.6669    0.0000 C   0  0  0  0  0  0  0  0  0  0  0  0
    2.5281    1.7451    0.0000 N   0  0  0  0  0  0  0  0  0  0  0  0
    3.8758    1.0864    0.0000 N   0  0  0  0  0  0  0  0  0  0  0  0
    5.2007    1.7896    0.0000 C   0  0  0  0  0  0  0  0  0  0  0  0
    6.4722    0.9937    0.0000 C   0  0  0  0  0  0  0  0  0  0  0  0
    7.7972    1.6968    0.0000 C   0  0  0  0  0  0  0  0  0  0  0  0
    7.8507    3.1958    0.0000 C   0  0  0  0  0  0  0  0  0  0  0  0
    6.5793    3.9918    0.0000 C   0  0  0  0  0  0  0  0  0  0  0  0
    5.2543    3.2886    0.0000 C   0  0  0  0  0  0  0  0  0  0  0  0
    3.6658   -0.3988    0.0000 C   0  0  0  0  0  0  0  0  0  0  0  0
    4.7440   -1.4417    0.0000 C   0  0  0  0  0  0  0  0  0  0  0  0
    4.3799   -2.8968    0.0000 C   0  0  0  0  0  0  0  0  0  0  0  0
    5.4581   -3.9397    0.0000 C   0  0  0  0  0  0  0  0  0  0  0  0
    6.9003   -3.5274    0.0000 C   0  0  0  0  0  0  0  0  0  0  0  0
    7.2643   -2.0722    0.0000 C   0  0  0  0  0  0  0  0  0  0  0  0
    6.1862   -1.0294    0.0000 C   0  0  0  0  0  0  0  0  0  0  0  0
    2.1884   -0.6581    0.0000 C   0  0  0  0  0  0  0  0  0  0  0  0
   -0.5608    2.2681    0.0000 C   0  0  0  0  0  0  0  0  0  0  0  0
   -2.0159    2.6322    0.0000 N   0  0  0  0  0  0  0  0  0  0  0  0
   -2.1194    4.1286    0.0000 N   0  0  0  0  0  0  0  0  0  0  0  0
   -3.3908    4.9245    0.0000 C   0  0  0  0  0  0  0  0  0  0  0  0
   -3.3372    6.4236    0.0000 C   0  0  0  0  0  0  0  0  0  0  0  0
   -4.6086    7.2195    0.0000 C   0  0  0  0  0  0  0  0  0  0  0  0
   -5.9336    6.5163    0.0000 C   0  0  0  0  0  0  0  0  0  0  0  0
   -5.9872    5.0173    0.0000 C   0  0  0  0  0  0  0  0  0  0  0  0
   -4.7158    4.2214    0.0000 C   0  0  0  0  0  0  0  0  0  0  0  0
   -0.7281    4.6894    0.0000 C   0  0  0  0  0  0  0  0  0  0  0  0
    0.2351    3.5395    0.0000 C   0  0  0  0  0  0  0  0  0  0  0  0
   -0.9244   -0.3044    0.0000 C   0  0  0  0  0  0  0  0  0  0  0  0
   -0.5122   -1.7466    0.0000 N   0  0  0  0  0  0  0  0  0  0  0  0
   -1.7564   -2.5844    0.0000 N   0  0  0  0  0  0  0  0  0  0  0  0
   -1.8100   -4.0834    0.0000 C   0  0  0  0  0  0  0  0  0  0  0  0
   -3.1350   -4.7866    0.0000 C   0  0  0  0  0  0  0  0  0  0  0  0
   -3.1885   -6.2856    0.0000 C   0  0  0  0  0  0  0  0  0  0  0  0
   -1.9171   -7.0815    0.0000 C   0  0  0  0  0  0  0  0  0  0  0  0
   -0.5921   -6.3784    0.0000 C   0  0  0  0  0  0  0  0  0  0  0  0
   -0.5385   -4.8793    0.0000 C   0  0  0  0  0  0  0  0  0  0  0  0
   -2.9377   -1.6599    0.0000 C   0  0  0  0  0  0  0  0  0  0  0  0
   -4.3799   -2.0722    0.0000 C   0  0  0  0  0  0  0  0  0  0  0  0
   -5.4581   -1.0294    0.0000 C   0  0  0  0  0  0  0  0  0  0  0  0
   -6.9003   -1.4417    0.0000 C   0  0  0  0  0  0  0  0  0  0  0  0
   -7.2643   -2.8968    0.0000 C   0  0  0  0  0  0  0  0  0  0  0  0
   -6.1862   -3.9397    0.0000 C   0  0  0  0  0  0  0  0  0  0  0  0
   -4.7440   -3.5274    0.0000 C   0  0  0  0  0  0  0  0  0  0  0  0
   -2.4235   -0.2508    0.0000 C   0  0  0  0  0  0  0  0  0  0  0  0
  1  2  1  0
  2  3  2  0
  3  4  1  0
  4  5  1  0
  5  6  2  0
  6  7  1  0
  7  8  2  0
  8  9  1  0
  9 10  2  0
  4 11  1  0
 11 12  1  0
 12 13  2  0
 13 14  1  0
 14 15  2  0
 15 16  1  0
 16 17  2  0
 11 18  2  0
  1 19  1  0
 19 20  2  0
 20 21  1  0
 21 22  1  0
 22 23  2  0
 23 24  1  0
 24 25  2  0
 25 26  1  0
 26 27  2  0
 21 28  1  0
 28 29  2  0
  1 30  1  0
 30 31  2  0
 31 32  1  0
 32 33  1  0
 33 34  2  0
 34 35  1  0
 35 36  2  0
 36 37  1  0
 37 38  2  0
 32 39  1  0
 39 40  1  0
 40 41  2  0
 41 42  1  0
 42 43  2  0
 43 44  1  0
 44 45  2  0
 39 46  2  0
 18  2  1  0
 29 19  1  0
 46 30  1  0
 10  5  1  0
 17 12  1  0
 27 22  1  0
 38 33  1  0
 45 40  1  0
M  END
$$$$
Molecule_117
     RDKit          2D

 32 36  0  0  0  0  0  0  0  0999 V2000
    0.9064    0.9088    0.0000 P   0  0  0  0  0  0  0  0  0  0  0  0
    0.7584    2.4015    0.0000 C   0  0  0  0  0  0  0  0  0  0  0  0
    1.9772    3.2760    0.0000 C   0  0  0  0  0  0  0  0  0  0  0  0
    1.8293    4.7687    0.0000 C   0  0  0  0  0  0  0  0  0  0  0  0
    0.4626    5.3869    0.0000 C   0  0  0  0  0  0  0  0  0  0  0  0
   -0.7562    4.5125    0.0000 C   0  0  0  0  0  0  0  0  0  0  0  0
   -0.6082    3.0198    0.0000 C   0  0  0  0  0  0  0  0  0  0  0  0
   -1.8270    2.1453    0.0000 C   0  0  0  0  0  0  0  0  0  0  0  0
   -0.3124    0.0344    0.0000 C   0  0  0  0  0  0  0  0  0  0  0  0
   -0.3213   -1.4656    0.0000 C   0  0  0  0  0  0  0  0  0  0  0  0
    0.8870   -2.3545    0.0000 C   0  0  0  0  0  0  0  0  0  0  0  0
    0.7213   -3.8453    0.0000 C   0  0  0  0  0  0  0  0  0  0  0  0
    1.9296   -4.7342    0.0000 C   0  0  0  0  0  0  0  0  0  0  0  0
    3.3035   -4.1322    0.0000 C   0  0  0  0  0  0  0  0  0  0  0  0
    3.4691   -2.6414    0.0000 C   0  0  0  0  0  0  0  0  0  0  0  0
    2.2609   -1.7525    0.0000 C   0  0  0  0  0  0  0  0  0  0  0  0
   -1.7506   -1.9206    0.0000 N   0  0  0  0  0  0  0  0  0  0  0  0
   -2.6251   -0.7019    0.0000 N   0  0  0  0  0  0  0  0  0  0  0  0
   -4.1250   -0.6929    0.0000 C   0  0  0  0  0  0  0  0  0  0  0  0
   -4.8673    0.6105    0.0000 C   0  0  0  0  0  0  0  0  0  0  0  0
   -6.3673    0.6194    0.0000 C   0  0  0  0  0  0  0  0  0  0  0  0
   -7.1250   -0.6751    0.0000 C   0  0  0  0  0  0  0  0  0  0  0  0
   -6.3827   -1.9786    0.0000 C   0  0  0  0  0  0  0  0  0  0  0  0
   -4.8828   -1.9875    0.0000 C   0  0  0  0  0  0  0  0  0  0  0  0
   -1.7362    0.5064    0.0000 C   0  0  0  0  0  0  0  0  0  0  0  0
    2.2730    0.2906    0.0000 C   0  0  0  0  0  0  0  0  0  0  0  0
    2.4209   -1.2021    0.0000 C   0  0  0  0  0  0  0  0  0  0  0  0
    3.7876   -1.8203    0.0000 C   0  0  0  0  0  0  0  0  0  0  0  0
    5.0064   -0.9459    0.0000 C   0  0  0  0  0  0  0  0  0  0  0  0
    4.8584    0.5468    0.0000 C   0  0  0  0  0  0  0  0  0  0  0  0
    3.4918    1.1650    0.0000 C   0  0  0  0  0  0  0  0  0  0  0  0
    3.3438    2.6577    0.0000 C   0  0  0  0  0  0  0  0  0  0  0  0
  1  2  1  0
  2  3  2  0
  3  4  1  0
  4  5  2  0
  5  6  1  0
  6  7  2  0
  7  8  1  0
  1  9  1  0
  9 10  1  0
 10 11  1  0
 11 12  2  0
 12 13  1  0
 13 14  2  0
 14 15  1  0
 15 16  2  0
 10 17  2  0
 17 18  1  0
 18 19  1  0
 19 20  2  0
 20 21  1  0
 21 22  2  0
 22 23  1  0
 23 24  2  0
 18 25  1  0
  1 26  1  0
 26 27  2  0
 27 28  1  0
 28 29  2  0
 29 30  1  0
 30 31  2  0
 31 32  1  0
  7  2  1  0
 25  9  2  0
 31 26  1  0
 16 11  1  0
 24 19  1  0
M  END
$$$$
Molecule_118
     RDKit          2D

 33 36  0  0  0  0  0  0  0  0999 V2000
    0.6618    0.1589    0.0000 P   0  0  0  0  0  0  0  0  0  0  0  0
    2.0841   -0.3178    0.0000 C   0  0  0  0  0  0  0  0  0  0  0  0
    2.3824   -1.7879    0.0000 C   0  0  0  0  0  0  0  0  0  0  0  0
    1.2584   -2.7812    0.0000 O   0  0  0  0  0  0  0  0  0  0  0  0
   -0.2369   -2.6628    0.0000 C   0  0  0  0  0  0  0  0  0  0  0  0
    3.8046   -2.2645    0.0000 C   0  0  0  0  0  0  0  0  0  0  0  0
    4.9286   -1.2712    0.0000 C   0  0  0  0  0  0  0  0  0  0  0  0
    4.6303    0.1988    0.0000 C   0  0  0  0  0  0  0  0  0  0  0  0
    3.2080    0.6755    0.0000 C   0  0  0  0  0  0  0  0  0  0  0  0
    2.9097    2.1456    0.0000 O   0  0  0  0  0  0  0  0  0  0  0  0
    4.0337    3.1389    0.0000 C   0  0  0  0  0  0  0  0  0  0  0  0
    0.3635    1.6289    0.0000 C   0  0  0  0  0  0  0  0  0  0  0  0
    1.4875    2.6223    0.0000 C   0  0  0  0  0  0  0  0  0  0  0  0
    1.1892    4.0923    0.0000 C   0  0  0  0  0  0  0  0  0  0  0  0
   -0.2331    4.5690    0.0000 C   0  0  0  0  0  0  0  0  0  0  0  0
   -1.3570    3.5756    0.0000 C   0  0  0  0  0  0  0  0  0  0  0  0
   -1.0587    2.1056    0.0000 C   0  0  0  0  0  0  0  0  0  0  0  0
   -2.1827    1.1122    0.0000 N   0  0  0  0  0  0  0  0  0  0  0  0
   -3.6049    1.5889    0.0000 C   0  0  0  0  0  0  0  0  0  0  0  0
   -4.7288    0.5956    0.0000 C   0  0  0  0  0  0  0  0  0  0  0  0
   -4.4305   -0.8745    0.0000 C   0  0  0  0  0  0  0  0  0  0  0  0
   -3.0083   -1.3512    0.0000 C   0  0  0  0  0  0  0  0  0  0  0  0
   -1.8844   -0.3578    0.0000 C   0  0  0  0  0  0  0  0  0  0  0  0
   -0.4621   -0.8345    0.0000 C   0  0  0  0  0  0  0  0  0  0  0  0
   -1.8844   -0.3578    0.0000 C   0  0  0  0  0  0  0  0  0  0  0  0
   -2.1827    1.1122    0.0000 O   0  0  0  0  0  0  0  0  0  0  0  0
   -1.3325    2.3480    0.0000 C   0  0  0  0  0  0  0  0  0  0  0  0
   -3.0083   -1.3512    0.0000 C   0  0  0  0  0  0  0  0  0  0  0  0
   -2.7100   -2.8212    0.0000 C   0  0  0  0  0  0  0  0  0  0  0  0
   -1.2878   -3.2979    0.0000 C   0  0  0  0  0  0  0  0  0  0  0  0
   -0.1638   -2.3045    0.0000 C   0  0  0  0  0  0  0  0  0  0  0  0
    1.2584   -2.7812    0.0000 O   0  0  0  0  0  0  0  0  0  0  0  0
    1.5567   -4.2513    0.0000 C   0  0  0  0  0  0  0  0  0  0  0  0
  1  2  1  0
  2  3  2  0
  3  4  1  0
  4  5  1  0
  3  6  1  0
  6  7  2  0
  7  8  1  0
  8  9  2  0
  9 10  1  0
 10 11  1  0
  1 12  1  0
 12 13  2  0
 13 14  1  0
 14 15  2  0
 15 16  1  0
 16 17  2  0
 17 18  1  0
 18 19  1  0
 19 20  1  0
 20 21  1  0
 21 22  1  0
 22 23  1  0
  1 24  1  0
 24 25  2  0
 25 26  1  0
 26 27  1  0
 25 28  1  0
 28 29  2  0
 29 30  1  0
 30 31  2  0
 31 32  1  0
 32 33  1  0
  9  2  1  0
 17 12  1  0
 23 18  1  0
 31 24  1  0
M  END
$$$$
Molecule_119
     RDKit          2D

 29 33  0  0  0  0  0  0  0  0999 V2000
    0.6270   -0.0000    0.0000 P   0  0  0  0  0  0  0  0  0  0  0  0
    1.3770   -1.2990    0.0000 C   0  0  0  0  0  0  0  0  0  0  0  0
    0.6270   -2.5981    0.0000 C   0  0  0  0  0  0  0  0  0  0  0  0
    1.3770   -3.8971    0.0000 C   0  0  0  0  0  0  0  0  0  0  0  0
    2.8770   -3.8971    0.0000 C   0  0  0  0  0  0  0  0  0  0  0  0
    3.6270   -2.5981    0.0000 C   0  0  0  0  0  0  0  0  0  0  0  0
    2.8770   -1.2990    0.0000 C   0  0  0  0  0  0  0  0  0  0  0  0
    3.5351   -0.4257    0.0000 C   0  0  0  0  0  0  0  0  0  0  0  0
   -0.8730   -0.0000    0.0000 C   0  0  0  0  0  0  0  0  0  0  0  0
   -1.6230    1.2990    0.0000 C   0  0  0  0  0  0  0  0  0  0  0  0
   -0.8730    2.5981    0.0000 C   0  0  0  0  0  0  0  0  0  0  0  0
   -1.6230    3.8971    0.0000 C   0  0  0  0  0  0  0  0  0  0  0  0
   -3.1230    3.8971    0.0000 C   0  0  0  0  0  0  0  0  0  0  0  0
   -3.8730    2.5981    0.0000 C   0  0  0  0  0  0  0  0  0  0  0  0
   -3.1230    1.2990    0.0000 C   0  0  0  0  0  0  0  0  0  0  0  0
   -3.8730    0.0000    0.0000 C   0  0  0  0  0  0  0  0  0  0  0  0
   -3.1230   -1.2990    0.0000 C   0  0  0  0  0  0  0  0  0  0  0  0
   -3.8730   -2.5981    0.0000 C   0  0  0  0  0  0  0  0  0  0  0  0
   -3.1230   -3.8971    0.0000 C   0  0  0  0  0  0  0  0  0  0  0  0
   -1.6230   -3.8971    0.0000 C   0  0  0  0  0  0  0  0  0  0  0  0
   -0.8730   -2.5981    0.0000 C   0  0  0  0  0  0  0  0  0  0  0  0
   -1.6230   -1.2990    0.0000 C   0  0  0  0  0  0  0  0  0  0  0  0
    1.3770    1.2990    0.0000 C   0  0  0  0  0  0  0  0  0  0  0  0
    0.6270    2.5981    0.0000 C   0  0  0  0  0  0  0  0  0  0  0  0
    1.3770    3.8971    0.0000 C   0  0  0  0  0  0  0  0  0  0  0  0
    2.8770    3.8971    0.0000 C   0  0  0  0  0  0  0  0  0  0  0  0
    3.6270    2.5981    0.0000 C   0  0  0  0  0  0  0  0  0  0  0  0
    2.8770    1.2990    0.0000 C   0  0  0  0  0  0  0  0  0  0  0  0
    3.5351    0.4257    0.0000 C   0  0  0  0  0  0  0  0  0  0  0  0
  1  2  1  0
  2  3  2  0
  3  4  1  0
  4  5  2  0
  5  6  1  0
  6  7  2  0
  7  8  1  0
  1  9  1  0
  9 10  1  0
 10 11  2  0
 11 12  1  0
 12 13  2  0
 13 14  1  0
 14 15  2  0
 15 16  1  0
 16 17  2  0
 17 18  1  0
 18 19  2  0
 19 20  1  0
 20 21  2  0
 21 22  1  0
  1 23  1  0
 23 24  2  0
 24 25  1  0
 25 26  2  0
 26 27  1  0
 27 28  2  0
 28 29  1  0
  7  2  1  0
 22  9  2  0
 28 23  1  0
 15 10  1  0
 22 17  1  0
M  END
$$$$
Molecule_120
     RDKit          2D

 41 47  0  0  0  0  0  0  0  0999 V2000
   -0.0000   -1.7245    0.0000 P   0  0  0  0  0  0  0  0  0  0  0  0
    1.2990   -0.9745    0.0000 C   0  0  0  0  0  0  0  0  0  0  0  0
    1.4558    0.5173    0.0000 N   0  0  0  0  0  0  0  0  0  0  0  0
    2.9231    0.8292    0.0000 N   0  0  0  0  0  0  0  0  0  0  0  0
    3.5332    2.1995    0.0000 C   0  0  0  0  0  0  0  0  0  0  0  0
    5.0249    2.3563    0.0000 C   0  0  0  0  0  0  0  0  0  0  0  0
    5.6350    3.7266    0.0000 C   0  0  0  0  0  0  0  0  0  0  0  0
    4.7534    4.9401    0.0000 C   0  0  0  0  0  0  0  0  0  0  0  0
    3.2616    4.7833    0.0000 C   0  0  0  0  0  0  0  0  0  0  0  0
    2.6515    3.4130    0.0000 C   0  0  0  0  0  0  0  0  0  0  0  0
    3.6731   -0.4699    0.0000 C   0  0  0  0  0  0  0  0  0  0  0  0
    5.1648   -0.6267    0.0000 C   0  0  0  0  0  0  0  0  0  0  0  0
    5.7749   -1.9970    0.0000 C   0  0  0  0  0  0  0  0  0  0  0  0
    7.2667   -2.1538    0.0000 C   0  0  0  0  0  0  0  0  0  0  0  0
    8.1484   -0.9402    0.0000 C   0  0  0  0  0  0  0  0  0  0  0  0
    7.5383    0.4301    0.0000 C   0  0  0  0  0  0  0  0  0  0  0  0
    6.0465    0.5869    0.0000 C   0  0  0  0  0  0  0  0  0  0  0  0
    2.6694   -1.5846    0.0000 C   0  0  0  0  0  0  0  0  0  0  0  0
    0.0000   -3.2245    0.0000 N   0  0  0  0  0  0  0  0  0  0  0  0
   -1.2990   -3.9745    0.0000 C   0  0  0  0  0  0  0  0  0  0  0  0
   -1.2990   -5.4745    0.0000 C   0  0  0  0  0  0  0  0  0  0  0  0
    0.0000   -6.2245    0.0000 C   0  0  0  0  0  0  0  0  0  0  0  0
    1.2990   -5.4745    0.0000 C   0  0  0  0  0  0  0  0  0  0  0  0
    1.2990   -3.9745    0.0000 C   0  0  0  0  0  0  0  0  0  0  0  0
   -1.2990   -0.9745    0.0000 C   0  0  0  0  0  0  0  0  0  0  0  0
   -2.6694   -1.5846    0.0000 N   0  0  0  0  0  0  0  0  0  0  0  0
   -3.6731   -0.4699    0.0000 N   0  0  0  0  0  0  0  0  0  0  0  0
   -5.1648   -0.6267    0.0000 C   0  0  0  0  0  0  0  0  0  0  0  0
   -6.0465    0.5869    0.0000 C   0  0  0  0  0  0  0  0  0  0  0  0
   -7.5383    0.4301    0.0000 C   0  0  0  0  0  0  0  0  0  0  0  0
   -8.1484   -0.9402    0.0000 C   0  0  0  0  0  0  0  0  0  0  0  0
   -7.2667   -2.1538    0.0000 C   0  0  0  0  0  0  0  0  0  0  0  0
   -5.7749   -1.9970    0.0000 C   0  0  0  0  0  0  0  0  0  0  0  0
   -2.9231    0.8292    0.0000 C   0  0  0  0  0  0  0  0  0  0  0  0
   -3.5332    2.1995    0.0000 C   0  0  0  0  0  0  0  0  0  0  0  0
   -2.6515    3.4130    0.0000 C   0  0  0  0  0  0  0  0  0  0  0  0
   -3.2616    4.7833    0.0000 C   0  0  0  0  0  0  0  0  0  0  0  0
   -4.7534    4.9401    0.0000 C   0  0  0  0  0  0  0  0  0  0  0  0
   -5.6350    3.7266    0.0000 C   0  0  0  0  0  0  0  0  0  0  0  0
   -5.0249    2.3563    0.0000 C   0  0  0  0  0  0  0  0  0  0  0  0
   -1.4558    0.5173    0.0000 C   0  0  0  0  0  0  0  0  0  0  0  0
  1  2  1  0
  2  3  2  0
  3  4  1  0
  4  5  1  0
  5  6  2  0
  6  7  1  0
  7  8  2  0
  8  9  1  0
  9 10  2  0
  4 11  1  0
 11 12  1  0
 12 13  2  0
 13 14  1  0
 14 15  2  0
 15 16  1  0
 16 17  2  0
 11 18  2  0
  1 19  1  0
 19 20  1  0
 20 21  1  0
 21 22  1  0
 22 23  1  0
 23 24  1  0
  1 25  1  0
 25 26  2  0
 26 27  1  0
 27 28  1  0
 28 29  2  0
 29 30  1  0
 30 31  2  0
 31 32  1  0
 32 33  2  0
 27 34  1  0
 34 35  1  0
 35 36  2  0
 36 37  1  0
 37 38  2  0
 38 39  1  0
 39 40  2  0
 34 41  2  0
 18  2  1  0
 24 19  1  0
 41 25  1  0
 10  5  1  0
 17 12  1  0
 33 28  1  0
 40 35  1  0
M  END
$$$$
Molecule_121
     RDKit          2D

 22 24  0  0  0  0  0  0  0  0999 V2000
    0.4685    0.0087    0.0000 P   0  0  0  0  0  0  0  0  0  0  0  0
    1.9662   -0.0750    0.0000 N   0  0  0  0  0  0  0  0  0  0  0  0
    2.6425   -1.4139    0.0000 C   0  0  0  0  0  0  0  0  0  0  0  0
    4.1402   -1.4976    0.0000 C   0  0  0  0  0  0  0  0  0  0  0  0
    4.9615   -0.2424    0.0000 C   0  0  0  0  0  0  0  0  0  0  0  0
    4.2851    1.0965    0.0000 C   0  0  0  0  0  0  0  0  0  0  0  0
    2.7875    1.1802    0.0000 C   0  0  0  0  0  0  0  0  0  0  0  0
   -0.2078    1.3476    0.0000 C   0  0  0  0  0  0  0  0  0  0  0  0
    0.6135    2.6027    0.0000 C   0  0  0  0  0  0  0  0  0  0  0  0
   -0.0629    3.9416    0.0000 C   0  0  0  0  0  0  0  0  0  0  0  0
   -1.5605    4.0253    0.0000 C   0  0  0  0  0  0  0  0  0  0  0  0
   -2.3819    2.7701    0.0000 C   0  0  0  0  0  0  0  0  0  0  0  0
   -1.7055    1.4313    0.0000 C   0  0  0  0  0  0  0  0  0  0  0  0
   -2.5268    0.1761    0.0000 N   0  0  0  0  0  0  0  0  0  0  0  0
   -4.0245    0.2598    0.0000 C   0  0  0  0  0  0  0  0  0  0  0  0
   -2.3502   -0.6013    0.0000 C   0  0  0  0  0  0  0  0  0  0  0  0
   -0.3528   -1.2465    0.0000 N   0  0  0  0  0  0  0  0  0  0  0  0
   -1.8505   -1.1628    0.0000 C   0  0  0  0  0  0  0  0  0  0  0  0
   -2.6718   -2.4179    0.0000 C   0  0  0  0  0  0  0  0  0  0  0  0
   -1.9955   -3.7568    0.0000 C   0  0  0  0  0  0  0  0  0  0  0  0
   -0.4978   -3.8405    0.0000 C   0  0  0  0  0  0  0  0  0  0  0  0
    0.3235   -2.5853    0.0000 C   0  0  0  0  0  0  0  0  0  0  0  0
  1  2  1  0
  2  3  1  0
  3  4  1  0
  4  5  1  0
  5  6  1  0
  6  7  1  0
  1  8  1  0
  8  9  2  0
  9 10  1  0
 10 11  2  0
 11 12  1  0
 12 13  2  0
 13 14  1  0
 14 15  1  0
 14 16  1  0
  1 17  1  0
 17 18  1  0
 18 19  1  0
 19 20  1  0
 20 21  1  0
 21 22  1  0
  7  2  1  0
 13  8  1  0
 22 17  1  0
M  END
$$$$
Molecule_122
     RDKit          2D

 27 29  0  0  0  0  0  0  0  0999 V2000
   -0.0000    0.6667    0.0000 P   0  0  0  0  0  0  0  0  0  0  0  0
    1.2990    1.4167    0.0000 C   0  0  0  0  0  0  0  0  0  0  0  0
    2.5981    0.6667    0.0000 C   0  0  0  0  0  0  0  0  0  0  0  0
    3.8971    1.4167    0.0000 C   0  0  0  0  0  0  0  0  0  0  0  0
    3.8971    2.9167    0.0000 C   0  0  0  0  0  0  0  0  0  0  0  0
    2.5981    3.6667    0.0000 C   0  0  0  0  0  0  0  0  0  0  0  0
    1.2990    2.9167    0.0000 C   0  0  0  0  0  0  0  0  0  0  0  0
   -0.0000   -0.8333    0.0000 C   0  0  0  0  0  0  0  0  0  0  0  0
   -1.2990   -1.5833    0.0000 C   0  0  0  0  0  0  0  0  0  0  0  0
   -2.5981   -0.8333    0.0000 O   0  0  0  0  0  0  0  0  0  0  0  0
   -3.8971   -1.5833    0.0000 C   0  0  0  0  0  0  0  0  0  0  0  0
   -5.1962   -0.8333    0.0000 C   0  0  0  0  0  0  0  0  0  0  0  0
   -3.8971   -3.0833    0.0000 C   0  0  0  0  0  0  0  0  0  0  0  0
   -1.2990   -3.0833    0.0000 C   0  0  0  0  0  0  0  0  0  0  0  0
   -0.0000   -3.8333    0.0000 C   0  0  0  0  0  0  0  0  0  0  0  0
    1.2990   -3.0833    0.0000 C   0  0  0  0  0  0  0  0  0  0  0  0
    1.2990   -1.5833    0.0000 C   0  0  0  0  0  0  0  0  0  0  0  0
    2.5981   -0.8333    0.0000 O   0  0  0  0  0  0  0  0  0  0  0  0
    3.8971   -1.5833    0.0000 C   0  0  0  0  0  0  0  0  0  0  0  0
    5.1962   -0.8333    0.0000 C   0  0  0  0  0  0  0  0  0  0  0  0
    3.8971   -3.0833    0.0000 C   0  0  0  0  0  0  0  0  0  0  0  0
   -1.2990    1.4167    0.0000 C   0  0  0  0  0  0  0  0  0  0  0  0
   -1.2990    2.9167    0.0000 C   0  0  0  0  0  0  0  0  0  0  0  0
   -2.5981    3.6667    0.0000 C   0  0  0  0  0  0  0  0  0  0  0  0
   -3.8971    2.9167    0.0000 C   0  0  0  0  0  0  0  0  0  0  0  0
   -3.8971    1.4167    0.0000 C   0  0  0  0  0  0  0  0  0  0  0  0
   -2.5981    0.6667    0.0000 C   0  0  0  0  0  0  0  0  0  0  0  0
  1  2  1  0
  2  3  2  0
  3  4  1  0
  4  5  2  0
  5  6  1  0
  6  7  2  0
  1  8  1  0
  8  9  2  0
  9 10  1  0
 10 11  1  0
 11 12  1  0
 11 13  1  0
  9 14  1  0
 14 15  2  0
 15 16  1  0
 16 17  2  0
 17 18  1  0
 18 19  1  0
 19 20  1  0
 19 21  1  0
  1 22  1  0
 22 23  2  0
 23 24  1  0
 24 25  2  0
 25 26  1  0
 26 27  2  0
  7  2  1  0
 17  8  1  0
 27 22  1  0
M  END
$$$$
Molecule_123
     RDKit          2D

 25 28  0  0  0  0  0  0  0  0999 V2000
    0.9525   -0.0000    0.0000 P   0  0  0  0  0  0  0  0  0  0  0  0
    2.3698    0.4910    0.0000 C   0  0  0  0  0  0  0  0  0  0  0  0
    3.5037   -0.4910    0.0000 C   0  0  0  0  0  0  0  0  0  0  0  0
    4.9211   -0.0000    0.0000 C   0  0  0  0  0  0  0  0  0  0  0  0
    5.2046    1.4730    0.0000 C   0  0  0  0  0  0  0  0  0  0  0  0
    4.0707    2.4550    0.0000 C   0  0  0  0  0  0  0  0  0  0  0  0
    2.6533    1.9640    0.0000 C   0  0  0  0  0  0  0  0  0  0  0  0
    0.6690   -1.4730    0.0000 C   0  0  0  0  0  0  0  0  0  0  0  0
    1.8029   -2.4550    0.0000 C   0  0  0  0  0  0  0  0  0  0  0  0
    1.5194   -3.9279    0.0000 C   0  0  0  0  0  0  0  0  0  0  0  0
    0.1021   -4.4189    0.0000 C   0  0  0  0  0  0  0  0  0  0  0  0
   -1.0318   -3.4369    0.0000 C   0  0  0  0  0  0  0  0  0  0  0  0
   -0.7484   -1.9640    0.0000 C   0  0  0  0  0  0  0  0  0  0  0  0
   -1.8823   -0.9820    0.0000 N   0  0  0  0  0  0  0  0  0  0  0  0
   -3.2996   -1.4730    0.0000 C   0  0  0  0  0  0  0  0  0  0  0  0
   -4.4335   -0.4910    0.0000 C   0  0  0  0  0  0  0  0  0  0  0  0
   -4.1500    0.9820    0.0000 C   0  0  0  0  0  0  0  0  0  0  0  0
   -2.7327    1.4730    0.0000 C   0  0  0  0  0  0  0  0  0  0  0  0
   -1.5988    0.4910    0.0000 C   0  0  0  0  0  0  0  0  0  0  0  0
   -0.1814    0.9820    0.0000 C   0  0  0  0  0  0  0  0  0  0  0  0
    0.1021    2.4550    0.0000 C   0  0  0  0  0  0  0  0  0  0  0  0
   -1.0318    3.4369    0.0000 C   0  0  0  0  0  0  0  0  0  0  0  0
   -2.4492    2.9459    0.0000 C   0  0  0  0  0  0  0  0  0  0  0  0
   -2.7327    1.4730    0.0000 C   0  0  0  0  0  0  0  0  0  0  0  0
   -1.5988    0.4910    0.0000 C   0  0  0  0  0  0  0  0  0  0  0  0
  1  2  1  0
  2  3  2  0
  3  4  1  0
  4  5  2  0
  5  6  1  0
  6  7  2  0
  1  8  1  0
  8  9  2  0
  9 10  1  0
 10 11  2  0
 11 12  1  0
 12 13  2  0
 13 14  1  0
 14 15  1  0
 15 16  1  0
 16 17  1  0
 17 18  1  0
 18 19  1  0
  1 20  1  0
 20 21  2  0
 21 22  1  0
 22 23  2  0
 23 24  1  0
 24 25  2  0
  7  2  1  0
 13  8  1  0
 19 14  1  0
 25 20  1  0
M  END
$$$$
Molecule_124
     RDKit          2D

 36 41  0  0  0  0  0  0  0  0999 V2000
   -4.5890    0.0000    0.0000 P   0  0  0  0  0  0  0  0  0  0  0  0
   -5.3390    1.2990    0.0000 C   0  0  0  0  0  0  0  0  0  0  0  0
   -4.5890    2.5981    0.0000 C   0  0  0  0  0  0  0  0  0  0  0  0
   -5.3390    3.8971    0.0000 C   0  0  0  0  0  0  0  0  0  0  0  0
   -6.8390    3.8971    0.0000 C   0  0  0  0  0  0  0  0  0  0  0  0
   -7.5890    2.5981    0.0000 C   0  0  0  0  0  0  0  0  0  0  0  0
   -6.8390    1.2990    0.0000 C   0  0  0  0  0  0  0  0  0  0  0  0
   -3.0890    0.0000    0.0000 C   0  0  0  0  0  0  0  0  0  0  0  0
   -2.3390   -1.2990    0.0000 C   0  0  0  0  0  0  0  0  0  0  0  0
   -0.8390   -1.2990    0.0000 C   0  0  0  0  0  0  0  0  0  0  0  0
   -0.0890    0.0000    0.0000 C   0  0  0  0  0  0  0  0  0  0  0  0
    1.4110   -0.0000    0.0000 C   0  0  0  0  0  0  0  0  0  0  0  0
    2.2927    1.2135    0.0000 C   0  0  0  0  0  0  0  0  0  0  0  0
    3.7193    0.7500    0.0000 C   0  0  0  0  0  0  0  0  0  0  0  0
    4.9328    1.6317    0.0000 C   0  0  0  0  0  0  0  0  0  0  0  0
    6.3031    1.0216    0.0000 C   0  0  0  0  0  0  0  0  0  0  0  0
    7.5166    1.9033    0.0000 C   0  0  0  0  0  0  0  0  0  0  0  0
    7.3598    3.3950    0.0000 C   0  0  0  0  0  0  0  0  0  0  0  0
    5.9895    4.0051    0.0000 C   0  0  0  0  0  0  0  0  0  0  0  0
    4.7760    3.1235    0.0000 C   0  0  0  0  0  0  0  0  0  0  0  0
    3.7193   -0.7500    0.0000 N   0  0  0  0  0  0  0  0  0  0  0  0
    4.9328   -1.6317    0.0000 C   0  0  0  0  0  0  0  0  0  0  0  0
    4.7760   -3.1235    0.0000 C   0  0  0  0  0  0  0  0  0  0  0  0
    5.9895   -4.0051    0.0000 C   0  0  0  0  0  0  0  0  0  0  0  0
    7.3598   -3.3950    0.0000 C   0  0  0  0  0  0  0  0  0  0  0  0
    7.5166   -1.9033    0.0000 C   0  0  0  0  0  0  0  0  0  0  0  0
    6.3031   -1.0216    0.0000 C   0  0  0  0  0  0  0  0  0  0  0  0
    2.2927   -1.2135    0.0000 N   0  0  0  0  0  0  0  0  0  0  0  0
   -0.8390    1.2990    0.0000 C   0  0  0  0  0  0  0  0  0  0  0  0
   -2.3390    1.2990    0.0000 C   0  0  0  0  0  0  0  0  0  0  0  0
   -5.3390   -1.2990    0.0000 C   0  0  0  0  0  0  0  0  0  0  0  0
   -6.8390   -1.2990    0.0000 C   0  0  0  0  0  0  0  0  0  0  0  0
   -7.5890   -2.5981    0.0000 C   0  0  0  0  0  0  0  0  0  0  0  0
   -6.8390   -3.8971    0.0000 C   0  0  0  0  0  0  0  0  0  0  0  0
   -5.3390   -3.8971    0.0000 C   0  0  0  0  0  0  0  0  0  0  0  0
   -4.5890   -2.5981    0.0000 C   0  0  0  0  0  0  0  0  0  0  0  0
  1  2  1  0
  2  3  2  0
  3  4  1  0
  4  5  2  0
  5  6  1  0
  6  7  2  0
  1  8  1  0
  8  9  2  0
  9 10  1  0
 10 11  2  0
 11 12  1  0
 12 13  1  0
 13 14  2  0
 14 15  1  0
 15 16  2  0
 16 17  1  0
 17 18  2  0
 18 19  1  0
 19 20  2  0
 14 21  1  0
 21 22  1  0
 22 23  2  0
 23 24  1  0
 24 25  2  0
 25 26  1  0
 26 27  2  0
 21 28  1  0
 11 29  1  0
 29 30  2  0
  1 31  1  0
 31 32  2  0
 32 33  1  0
 33 34  2  0
 34 35  1  0
 35 36  2  0
  7  2  1  0
 30  8  1  0
 36 31  1  0
 28 12  2  0
 20 15  1  0
 27 22  1  0
M  END
$$$$
Molecule_125
     RDKit          2D

 31 35  0  0  0  0  0  0  0  0999 V2000
   -0.0000   -0.7681    0.0000 P   0  0  0  0  0  0  0  0  0  0  0  0
    0.4910    0.6492    0.0000 C   0  0  0  0  0  0  0  0  0  0  0  0
    1.9640    0.9327    0.0000 C   0  0  0  0  0  0  0  0  0  0  0  0
    2.4550    2.3501    0.0000 C   0  0  0  0  0  0  0  0  0  0  0  0
    1.4730    3.4840    0.0000 C   0  0  0  0  0  0  0  0  0  0  0  0
    0.0000    3.2005    0.0000 C   0  0  0  0  0  0  0  0  0  0  0  0
   -0.4910    1.7831    0.0000 C   0  0  0  0  0  0  0  0  0  0  0  0
   -1.9640    1.4997    0.0000 N   0  0  0  0  0  0  0  0  0  0  0  0
   -2.4550    0.0823    0.0000 C   0  0  0  0  0  0  0  0  0  0  0  0
   -3.9279   -0.2012    0.0000 C   0  0  0  0  0  0  0  0  0  0  0  0
   -4.9099    0.9327    0.0000 C   0  0  0  0  0  0  0  0  0  0  0  0
   -4.4189    2.3501    0.0000 C   0  0  0  0  0  0  0  0  0  0  0  0
   -2.9459    2.6336    0.0000 C   0  0  0  0  0  0  0  0  0  0  0  0
   -1.4730   -1.0516    0.0000 N   0  0  0  0  0  0  0  0  0  0  0  0
   -2.4550    0.0823    0.0000 C   0  0  0  0  0  0  0  0  0  0  0  0
   -3.9279   -0.2012    0.0000 C   0  0  0  0  0  0  0  0  0  0  0  0
   -4.4189   -1.6185    0.0000 C   0  0  0  0  0  0  0  0  0  0  0  0
   -3.4369   -2.7524    0.0000 C   0  0  0  0  0  0  0  0  0  0  0  0
   -1.9640   -2.4690    0.0000 C   0  0  0  0  0  0  0  0  0  0  0  0
    0.9820   -1.9020    0.0000 C   0  0  0  0  0  0  0  0  0  0  0  0
    0.4910   -3.3194    0.0000 C   0  0  0  0  0  0  0  0  0  0  0  0
    1.4730   -4.4533    0.0000 C   0  0  0  0  0  0  0  0  0  0  0  0
    2.9459   -4.1698    0.0000 C   0  0  0  0  0  0  0  0  0  0  0  0
    3.4369   -2.7524    0.0000 C   0  0  0  0  0  0  0  0  0  0  0  0
    2.4550   -1.6185    0.0000 C   0  0  0  0  0  0  0  0  0  0  0  0
    2.9459   -0.2012    0.0000 N   0  0  0  0  0  0  0  0  0  0  0  0
    4.4189    0.0823    0.0000 C   0  0  0  0  0  0  0  0  0  0  0  0
    4.9099    1.4997    0.0000 C   0  0  0  0  0  0  0  0  0  0  0  0
    3.9279    2.6336    0.0000 C   0  0  0  0  0  0  0  0  0  0  0  0
    2.4550    2.3501    0.0000 C   0  0  0  0  0  0  0  0  0  0  0  0
    1.9640    0.9327    0.0000 C   0  0  0  0  0  0  0  0  0  0  0  0
  1  2  1  0
  2  3  2  0
  3  4  1  0
  4  5  2  0
  5  6  1  0
  6  7  2  0
  7  8  1  0
  8  9  1  0
  9 10  1  0
 10 11  1  0
 11 12  1  0
 12 13  1  0
  1 14  1  0
 14 15  1  0
 15 16  1  0
 16 17  1  0
 17 18  1  0
 18 19  1  0
  1 20  1  0
 20 21  2  0
 21 22  1  0
 22 23  2  0
 23 24  1  0
 24 25  2  0
 25 26  1  0
 26 27  1  0
 27 28  1  0
 28 29  1  0
 29 30  1  0
 30 31  1  0
  7  2  1  0
 13  8  1  0
 19 14  1  0
 25 20  1  0
 31 26  1  0
M  END
$$$$
Molecule_126
     RDKit          2D

 36 41  0  0  0  0  0  0  0  0999 V2000
   -4.5890    0.0000    0.0000 P   0  0  0  0  0  0  0  0  0  0  0  0
   -5.3390    1.2990    0.0000 C   0  0  0  0  0  0  0  0  0  0  0  0
   -4.5890    2.5981    0.0000 C   0  0  0  0  0  0  0  0  0  0  0  0
   -5.3390    3.8971    0.0000 C   0  0  0  0  0  0  0  0  0  0  0  0
   -6.8390    3.8971    0.0000 C   0  0  0  0  0  0  0  0  0  0  0  0
   -7.5890    2.5981    0.0000 C   0  0  0  0  0  0  0  0  0  0  0  0
   -6.8390    1.2990    0.0000 C   0  0  0  0  0  0  0  0  0  0  0  0
   -3.0890    0.0000    0.0000 C   0  0  0  0  0  0  0  0  0  0  0  0
   -2.3390   -1.2990    0.0000 C   0  0  0  0  0  0  0  0  0  0  0  0
   -0.8390   -1.2990    0.0000 C   0  0  0  0  0  0  0  0  0  0  0  0
   -0.0890    0.0000    0.0000 C   0  0  0  0  0  0  0  0  0  0  0  0
    1.4110   -0.0000    0.0000 C   0  0  0  0  0  0  0  0  0  0  0  0
    2.2927    1.2135    0.0000 C   0  0  0  0  0  0  0  0  0  0  0  0
    3.7193    0.7500    0.0000 C   0  0  0  0  0  0  0  0  0  0  0  0
    4.9328    1.6317    0.0000 C   0  0  0  0  0  0  0  0  0  0  0  0
    6.3031    1.0216    0.0000 C   0  0  0  0  0  0  0  0  0  0  0  0
    7.5166    1.9033    0.0000 C   0  0  0  0  0  0  0  0  0  0  0  0
    7.3598    3.3950    0.0000 C   0  0  0  0  0  0  0  0  0  0  0  0
    5.9895    4.0051    0.0000 C   0  0  0  0  0  0  0  0  0  0  0  0
    4.7760    3.1235    0.0000 C   0  0  0  0  0  0  0  0  0  0  0  0
    3.7193   -0.7500    0.0000 N   0  0  0  0  0  0  0  0  0  0  0  0
    4.9328   -1.6317    0.0000 C   0  0  0  0  0  0  0  0  0  0  0  0
    4.7760   -3.1235    0.0000 C   0  0  0  0  0  0  0  0  0  0  0  0
    5.9895   -4.0051    0.0000 C   0  0  0  0  0  0  0  0  0  0  0  0
    7.3598   -3.3950    0.0000 C   0  0  0  0  0  0  0  0  0  0  0  0
    7.5166   -1.9033    0.0000 C   0  0  0  0  0  0  0  0  0  0  0  0
    6.3031   -1.0216    0.0000 C   0  0  0  0  0  0  0  0  0  0  0  0
    2.2927   -1.2135    0.0000 N   0  0  0  0  0  0  0  0  0  0  0  0
   -0.8390    1.2990    0.0000 C   0  0  0  0  0  0  0  0  0  0  0  0
   -2.3390    1.2990    0.0000 C   0  0  0  0  0  0  0  0  0  0  0  0
   -5.3390   -1.2990    0.0000 C   0  0  0  0  0  0  0  0  0  0  0  0
   -6.8390   -1.2990    0.0000 C   0  0  0  0  0  0  0  0  0  0  0  0
   -7.5890   -2.5981    0.0000 C   0  0  0  0  0  0  0  0  0  0  0  0
   -6.8390   -3.8971    0.0000 C   0  0  0  0  0  0  0  0  0  0  0  0
   -5.3390   -3.8971    0.0000 C   0  0  0  0  0  0  0  0  0  0  0  0
   -4.5890   -2.5981    0.0000 C   0  0  0  0  0  0  0  0  0  0  0  0
  1  2  1  0
  2  3  2  0
  3  4  1  0
  4  5  2  0
  5  6  1  0
  6  7  2  0
  1  8  1  0
  8  9  2  0
  9 10  1  0
 10 11  2  0
 11 12  1  0
 12 13  1  0
 13 14  2  0
 14 15  1  0
 15 16  2  0
 16 17  1  0
 17 18  2  0
 18 19  1  0
 19 20  2  0
 14 21  1  0
 21 22  1  0
 22 23  2  0
 23 24  1  0
 24 25  2  0
 25 26  1  0
 26 27  2  0
 21 28  1  0
 11 29  1  0
 29 30  2  0
  1 31  1  0
 31 32  2  0
 32 33  1  0
 33 34  2  0
 34 35  1  0
 35 36  2  0
  7  2  1  0
 30  8  1  0
 36 31  1  0
 28 12  2  0
 20 15  1  0
 27 22  1  0
M  END
$$$$
Molecule_127
     RDKit          2D

 37 40  0  0  0  0  0  0  0  0999 V2000
    0.5265    0.3478    0.0000 P   0  0  0  0  0  0  0  0  0  0  0  0
    2.0179    0.1870    0.0000 C   0  0  0  0  0  0  0  0  0  0  0  0
    2.6244   -1.1849    0.0000 C   0  0  0  0  0  0  0  0  0  0  0  0
    1.7395   -2.3961    0.0000 N   0  0  0  0  0  0  0  0  0  0  0  0
    0.2535   -2.6010    0.0000 C   0  0  0  0  0  0  0  0  0  0  0  0
    2.5087   -3.6839    0.0000 C   0  0  0  0  0  0  0  0  0  0  0  0
    4.1157   -1.3456    0.0000 C   0  0  0  0  0  0  0  0  0  0  0  0
    5.0006   -0.1344    0.0000 C   0  0  0  0  0  0  0  0  0  0  0  0
    4.3941    1.2375    0.0000 C   0  0  0  0  0  0  0  0  0  0  0  0
    2.9028    1.3982    0.0000 C   0  0  0  0  0  0  0  0  0  0  0  0
    2.2963    2.7701    0.0000 N   0  0  0  0  0  0  0  0  0  0  0  0
    3.1811    3.9813    0.0000 C   0  0  0  0  0  0  0  0  0  0  0  0
    1.5479    3.0448    0.0000 C   0  0  0  0  0  0  0  0  0  0  0  0
   -0.0800    1.7197    0.0000 C   0  0  0  0  0  0  0  0  0  0  0  0
    0.8049    2.9309    0.0000 C   0  0  0  0  0  0  0  0  0  0  0  0
    0.1984    4.3028    0.0000 C   0  0  0  0  0  0  0  0  0  0  0  0
   -1.2929    4.4635    0.0000 C   0  0  0  0  0  0  0  0  0  0  0  0
   -2.1778    3.2523    0.0000 C   0  0  0  0  0  0  0  0  0  0  0  0
   -1.5713    1.8804    0.0000 C   0  0  0  0  0  0  0  0  0  0  0  0
   -2.4562    0.6692    0.0000 N   0  0  0  0  0  0  0  0  0  0  0  0
   -3.9476    0.8299    0.0000 C   0  0  0  0  0  0  0  0  0  0  0  0
   -4.8325   -0.3812    0.0000 C   0  0  0  0  0  0  0  0  0  0  0  0
   -4.2260   -1.7532    0.0000 C   0  0  0  0  0  0  0  0  0  0  0  0
   -2.7346   -1.9139    0.0000 C   0  0  0  0  0  0  0  0  0  0  0  0
   -1.8497   -0.7027    0.0000 C   0  0  0  0  0  0  0  0  0  0  0  0
   -0.3584   -0.8634    0.0000 C   0  0  0  0  0  0  0  0  0  0  0  0
   -1.8497   -0.7027    0.0000 C   0  0  0  0  0  0  0  0  0  0  0  0
   -2.4562    0.6692    0.0000 N   0  0  0  0  0  0  0  0  0  0  0  0
   -1.8907    2.0585    0.0000 C   0  0  0  0  0  0  0  0  0  0  0  0
   -3.9422    0.4643    0.0000 C   0  0  0  0  0  0  0  0  0  0  0  0
   -2.7346   -1.9139    0.0000 C   0  0  0  0  0  0  0  0  0  0  0  0
   -2.1281   -3.2858    0.0000 C   0  0  0  0  0  0  0  0  0  0  0  0
   -0.6368   -3.4466    0.0000 C   0  0  0  0  0  0  0  0  0  0  0  0
    0.2481   -2.2354    0.0000 C   0  0  0  0  0  0  0  0  0  0  0  0
    1.7395   -2.3961    0.0000 N   0  0  0  0  0  0  0  0  0  0  0  0
    2.1742   -3.8317    0.0000 C   0  0  0  0  0  0  0  0  0  0  0  0
    2.8911   -1.4350    0.0000 C   0  0  0  0  0  0  0  0  0  0  0  0
  1  2  1  0
  2  3  2  0
  3  4  1  0
  4  5  1  0
  4  6  1  0
  3  7  1  0
  7  8  2  0
  8  9  1  0
  9 10  2  0
 10 11  1  0
 11 12  1  0
 11 13  1  0
  1 14  1  0
 14 15  2  0
 15 16  1  0
 16 17  2  0
 17 18  1  0
 18 19  2  0
 19 20  1  0
 20 21  1  0
 21 22  1  0
 22 23  1  0
 23 24  1  0
 24 25  1  0
  1 26  1  0
 26 27  2  0
 27 28  1  0
 28 29  1  0
 28 30  1  0
 27 31  1  0
 31 32  2  0
 32 33  1  0
 33 34  2  0
 34 35  1  0
 35 36  1  0
 35 37  1  0
 10  2  1  0
 19 14  1  0
 25 20  1  0
 34 26  1  0
M  END
$$$$
Molecule_128
     RDKit          2D

 33 35  0  0  0  0  0  0  0  0999 V2000
   -0.0000    0.0712    0.0000 P   0  0  0  0  0  0  0  0  0  0  0  0
    1.2990    0.8212    0.0000 C   0  0  0  0  0  0  0  0  0  0  0  0
    2.5981    0.0712    0.0000 C   0  0  0  0  0  0  0  0  0  0  0  0
    2.5981   -1.4288    0.0000 O   0  0  0  0  0  0  0  0  0  0  0  0
    4.0400   -1.8422    0.0000 C   0  0  0  0  0  0  0  0  0  0  0  0
    3.8971    0.8212    0.0000 C   0  0  0  0  0  0  0  0  0  0  0  0
    3.8971    2.3212    0.0000 C   0  0  0  0  0  0  0  0  0  0  0  0
    2.5981    3.0712    0.0000 C   0  0  0  0  0  0  0  0  0  0  0  0
    1.2990    2.3212    0.0000 C   0  0  0  0  0  0  0  0  0  0  0  0
    0.0000    3.0712    0.0000 O   0  0  0  0  0  0  0  0  0  0  0  0
    0.1828    4.5600    0.0000 C   0  0  0  0  0  0  0  0  0  0  0  0
   -0.0000   -1.4288    0.0000 C   0  0  0  0  0  0  0  0  0  0  0  0
   -1.2990   -2.1788    0.0000 C   0  0  0  0  0  0  0  0  0  0  0  0
   -2.5981   -1.4288    0.0000 O   0  0  0  0  0  0  0  0  0  0  0  0
   -3.8971   -2.1788    0.0000 C   0  0  0  0  0  0  0  0  0  0  0  0
   -5.1962   -1.4288    0.0000 C   0  0  0  0  0  0  0  0  0  0  0  0
   -1.2990   -3.6788    0.0000 C   0  0  0  0  0  0  0  0  0  0  0  0
   -0.0000   -4.4288    0.0000 C   0  0  0  0  0  0  0  0  0  0  0  0
    1.2990   -3.6788    0.0000 C   0  0  0  0  0  0  0  0  0  0  0  0
    1.2990   -2.1788    0.0000 C   0  0  0  0  0  0  0  0  0  0  0  0
    2.5981   -1.4288    0.0000 O   0  0  0  0  0  0  0  0  0  0  0  0
    3.8971   -2.1788    0.0000 C   0  0  0  0  0  0  0  0  0  0  0  0
    5.1962   -1.4288    0.0000 C   0  0  0  0  0  0  0  0  0  0  0  0
   -1.2990    0.8212    0.0000 C   0  0  0  0  0  0  0  0  0  0  0  0
   -1.2990    2.3212    0.0000 C   0  0  0  0  0  0  0  0  0  0  0  0
   -0.0000    3.0712    0.0000 O   0  0  0  0  0  0  0  0  0  0  0  0
   -0.1828    4.5600    0.0000 C   0  0  0  0  0  0  0  0  0  0  0  0
   -2.5981    3.0712    0.0000 C   0  0  0  0  0  0  0  0  0  0  0  0
   -3.8971    2.3212    0.0000 C   0  0  0  0  0  0  0  0  0  0  0  0
   -3.8971    0.8212    0.0000 C   0  0  0  0  0  0  0  0  0  0  0  0
   -2.5981    0.0712    0.0000 C   0  0  0  0  0  0  0  0  0  0  0  0
   -2.5981   -1.4288    0.0000 O   0  0  0  0  0  0  0  0  0  0  0  0
   -4.0400   -1.8422    0.0000 C   0  0  0  0  0  0  0  0  0  0  0  0
  1  2  1  0
  2  3  2  0
  3  4  1  0
  4  5  1  0
  3  6  1  0
  6  7  2  0
  7  8  1  0
  8  9  2  0
  9 10  1  0
 10 11  1  0
  1 12  1  0
 12 13  2  0
 13 14  1  0
 14 15  1  0
 15 16  1  0
 13 17  1  0
 17 18  2  0
 18 19  1  0
 19 20  2  0
 20 21  1  0
 21 22  1  0
 22 23  1  0
  1 24  1  0
 24 25  2  0
 25 26  1  0
 26 27  1  0
 25 28  1  0
 28 29  2  0
 29 30  1  0
 30 31  2  0
 31 32  1  0
 32 33  1  0
  9  2  1  0
 20 12  1  0
 31 24  1  0
M  END
$$$$
Molecule_129
     RDKit          2D

 37 39  0  0  0  0  0  0  0  0999 V2000
   -0.2416    0.3895    0.0000 P   0  0  0  0  0  0  0  0  0  0  0  0
    0.9907   -0.4658    0.0000 C   0  0  0  0  0  0  0  0  0  0  0  0
    0.8661   -1.9606    0.0000 C   0  0  0  0  0  0  0  0  0  0  0  0
    2.0983   -2.8159    0.0000 C   0  0  0  0  0  0  0  0  0  0  0  0
    3.4552   -2.1764    0.0000 C   0  0  0  0  0  0  0  0  0  0  0  0
    4.6874   -3.0318    0.0000 N   0  0  0  0  0  0  0  0  0  0  0  0
    4.5628   -4.5266    0.0000 C   0  0  0  0  0  0  0  0  0  0  0  0
    6.0443   -2.3923    0.0000 C   0  0  0  0  0  0  0  0  0  0  0  0
    3.5798   -0.6816    0.0000 C   0  0  0  0  0  0  0  0  0  0  0  0
    2.3475    0.1737    0.0000 C   0  0  0  0  0  0  0  0  0  0  0  0
    2.4721    1.6685    0.0000 N   0  0  0  0  0  0  0  0  0  0  0  0
    3.9434    1.9607    0.0000 C   0  0  0  0  0  0  0  0  0  0  0  0
    1.9467    2.2680    0.0000 C   0  0  0  0  0  0  0  0  0  0  0  0
   -0.1170    1.8843    0.0000 C   0  0  0  0  0  0  0  0  0  0  0  0
    1.2399    2.5238    0.0000 C   0  0  0  0  0  0  0  0  0  0  0  0
    2.4721    1.6685    0.0000 O   0  0  0  0  0  0  0  0  0  0  0  0
    3.8290    2.3080    0.0000 C   0  0  0  0  0  0  0  0  0  0  0  0
    5.0612    1.4527    0.0000 C   0  0  0  0  0  0  0  0  0  0  0  0
    1.3645    4.0186    0.0000 C   0  0  0  0  0  0  0  0  0  0  0  0
    0.1322    4.8740    0.0000 C   0  0  0  0  0  0  0  0  0  0  0  0
   -1.2246    4.2345    0.0000 C   0  0  0  0  0  0  0  0  0  0  0  0
   -1.3492    2.7396    0.0000 C   0  0  0  0  0  0  0  0  0  0  0  0
   -2.7061    2.1001    0.0000 O   0  0  0  0  0  0  0  0  0  0  0  0
   -3.9383    2.9555    0.0000 C   0  0  0  0  0  0  0  0  0  0  0  0
   -5.2952    2.3160    0.0000 C   0  0  0  0  0  0  0  0  0  0  0  0
   -1.5984   -0.2500    0.0000 C   0  0  0  0  0  0  0  0  0  0  0  0
   -2.8307    0.6053    0.0000 C   0  0  0  0  0  0  0  0  0  0  0  0
   -4.1875   -0.0342    0.0000 C   0  0  0  0  0  0  0  0  0  0  0  0
   -4.3121   -1.5290    0.0000 C   0  0  0  0  0  0  0  0  0  0  0  0
   -5.6690   -2.1685    0.0000 N   0  0  0  0  0  0  0  0  0  0  0  0
   -6.9012   -1.3132    0.0000 C   0  0  0  0  0  0  0  0  0  0  0  0
   -5.7936   -3.6633    0.0000 C   0  0  0  0  0  0  0  0  0  0  0  0
   -3.0799   -2.3843    0.0000 C   0  0  0  0  0  0  0  0  0  0  0  0
   -1.7230   -1.7448    0.0000 C   0  0  0  0  0  0  0  0  0  0  0  0
   -0.4908   -2.6001    0.0000 N   0  0  0  0  0  0  0  0  0  0  0  0
   -0.6154   -4.0949    0.0000 C   0  0  0  0  0  0  0  0  0  0  0  0
    0.9805   -2.3080    0.0000 C   0  0  0  0  0  0  0  0  0  0  0  0
  1  2  1  0
  2  3  2  0
  3  4  1  0
  4  5  2  0
  5  6  1  0
  6  7  1  0
  6  8  1  0
  5  9  1  0
  9 10  2  0
 10 11  1  0
 11 12  1  0
 11 13  1  0
  1 14  1  0
 14 15  2  0
 15 16  1  0
 16 17  1  0
 17 18  1  0
 15 19  1  0
 19 20  2  0
 20 21  1  0
 21 22  2  0
 22 23  1  0
 23 24  1  0
 24 25  1  0
  1 26  1  0
 26 27  2  0
 27 28  1  0
 28 29  2  0
 29 30  1  0
 30 31  1  0
 30 32  1  0
 29 33  1  0
 33 34  2  0
 34 35  1  0
 35 36  1  0
 35 37  1  0
 10  2  1  0
 22 14  1  0
 34 26  1  0
M  END
$$$$
Molecule_130
     RDKit          2D

 35 37  0  0  0  0  0  0  0  0999 V2000
   -0.5136   -0.0000    0.0000 P   0  0  0  0  0  0  0  0  0  0  0  0
    0.2364    1.2990    0.0000 C   0  0  0  0  0  0  0  0  0  0  0  0
   -0.5136    2.5981    0.0000 C   0  0  0  0  0  0  0  0  0  0  0  0
   -2.0136    2.5981    0.0000 O   0  0  0  0  0  0  0  0  0  0  0  0
   -2.7636    3.8971    0.0000 C   0  0  0  0  0  0  0  0  0  0  0  0
   -4.2636    3.8971    0.0000 C   0  0  0  0  0  0  0  0  0  0  0  0
   -2.0136    5.1962    0.0000 C   0  0  0  0  0  0  0  0  0  0  0  0
    0.2364    3.8971    0.0000 C   0  0  0  0  0  0  0  0  0  0  0  0
    1.7364    3.8971    0.0000 C   0  0  0  0  0  0  0  0  0  0  0  0
    2.4864    2.5981    0.0000 C   0  0  0  0  0  0  0  0  0  0  0  0
    1.7364    1.2990    0.0000 C   0  0  0  0  0  0  0  0  0  0  0  0
    2.4864   -0.0000    0.0000 O   0  0  0  0  0  0  0  0  0  0  0  0
    3.9864   -0.0000    0.0000 C   0  0  0  0  0  0  0  0  0  0  0  0
    4.5724   -1.3808    0.0000 C   0  0  0  0  0  0  0  0  0  0  0  0
    4.5724    1.3808    0.0000 C   0  0  0  0  0  0  0  0  0  0  0  0
   -2.0136   -0.0000    0.0000 C   0  0  0  0  0  0  0  0  0  0  0  0
   -2.7636    1.2990    0.0000 C   0  0  0  0  0  0  0  0  0  0  0  0
   -4.2636    1.2990    0.0000 C   0  0  0  0  0  0  0  0  0  0  0  0
   -5.0136   -0.0000    0.0000 C   0  0  0  0  0  0  0  0  0  0  0  0
   -4.2636   -1.2990    0.0000 C   0  0  0  0  0  0  0  0  0  0  0  0
   -2.7636   -1.2990    0.0000 C   0  0  0  0  0  0  0  0  0  0  0  0
    0.2364   -1.2990    0.0000 C   0  0  0  0  0  0  0  0  0  0  0  0
   -0.5136   -2.5981    0.0000 C   0  0  0  0  0  0  0  0  0  0  0  0
   -2.0136   -2.5981    0.0000 O   0  0  0  0  0  0  0  0  0  0  0  0
   -2.7636   -3.8971    0.0000 C   0  0  0  0  0  0  0  0  0  0  0  0
   -4.2636   -3.8971    0.0000 C   0  0  0  0  0  0  0  0  0  0  0  0
   -2.0136   -5.1962    0.0000 C   0  0  0  0  0  0  0  0  0  0  0  0
    0.2364   -3.8971    0.0000 C   0  0  0  0  0  0  0  0  0  0  0  0
    1.7364   -3.8971    0.0000 C   0  0  0  0  0  0  0  0  0  0  0  0
    2.4864   -2.5981    0.0000 C   0  0  0  0  0  0  0  0  0  0  0  0
    1.7364   -1.2990    0.0000 C   0  0  0  0  0  0  0  0  0  0  0  0
    2.4864   -0.0000    0.0000 O   0  0  0  0  0  0  0  0  0  0  0  0
    3.9864   -0.0000    0.0000 C   0  0  0  0  0  0  0  0  0  0  0  0
    4.8891    1.1979    0.0000 C   0  0  0  0  0  0  0  0  0  0  0  0
    4.8891   -1.1979    0.0000 C   0  0  0  0  0  0  0  0  0  0  0  0
  1  2  1  0
  2  3  2  0
  3  4  1  0
  4  5  1  0
  5  6  1  0
  5  7  1  0
  3  8  1  0
  8  9  2  0
  9 10  1  0
 10 11  2  0
 11 12  1  0
 12 13  1  0
 13 14  1  0
 13 15  1  0
  1 16  1  0
 16 17  2  0
 17 18  1  0
 18 19  2  0
 19 20  1  0
 20 21  2  0
  1 22  1  0
 22 23  2  0
 23 24  1  0
 24 25  1  0
 25 26  1  0
 25 27  1  0
 23 28  1  0
 28 29  2  0
 29 30  1  0
 30 31  2  0
 31 32  1  0
 32 33  1  0
 33 34  1  0
 33 35  1  0
 11  2  1  0
 21 16  1  0
 31 22  1  0
M  END
$$$$
Molecule_131
     RDKit          2D

 35 37  0  0  0  0  0  0  0  0999 V2000
   -0.5136   -0.0000    0.0000 P   0  0  0  0  0  0  0  0  0  0  0  0
    0.2364    1.2990    0.0000 C   0  0  0  0  0  0  0  0  0  0  0  0
   -0.5136    2.5981    0.0000 C   0  0  0  0  0  0  0  0  0  0  0  0
   -2.0136    2.5981    0.0000 O   0  0  0  0  0  0  0  0  0  0  0  0
   -2.7636    3.8971    0.0000 C   0  0  0  0  0  0  0  0  0  0  0  0
   -4.2636    3.8971    0.0000 C   0  0  0  0  0  0  0  0  0  0  0  0
   -2.0136    5.1962    0.0000 C   0  0  0  0  0  0  0  0  0  0  0  0
    0.2364    3.8971    0.0000 C   0  0  0  0  0  0  0  0  0  0  0  0
    1.7364    3.8971    0.0000 C   0  0  0  0  0  0  0  0  0  0  0  0
    2.4864    2.5981    0.0000 C   0  0  0  0  0  0  0  0  0  0  0  0
    1.7364    1.2990    0.0000 C   0  0  0  0  0  0  0  0  0  0  0  0
    2.4864   -0.0000    0.0000 O   0  0  0  0  0  0  0  0  0  0  0  0
    3.9864   -0.0000    0.0000 C   0  0  0  0  0  0  0  0  0  0  0  0
    4.5724   -1.3808    0.0000 C   0  0  0  0  0  0  0  0  0  0  0  0
    4.5724    1.3808    0.0000 C   0  0  0  0  0  0  0  0  0  0  0  0
   -2.0136   -0.0000    0.0000 C   0  0  0  0  0  0  0  0  0  0  0  0
   -2.7636    1.2990    0.0000 C   0  0  0  0  0  0  0  0  0  0  0  0
   -4.2636    1.2990    0.0000 C   0  0  0  0  0  0  0  0  0  0  0  0
   -5.0136   -0.0000    0.0000 N   0  0  0  0  0  0  0  0  0  0  0  0
   -4.2636   -1.2990    0.0000 C   0  0  0  0  0  0  0  0  0  0  0  0
   -2.7636   -1.2990    0.0000 C   0  0  0  0  0  0  0  0  0  0  0  0
    0.2364   -1.2990    0.0000 C   0  0  0  0  0  0  0  0  0  0  0  0
   -0.5136   -2.5981    0.0000 C   0  0  0  0  0  0  0  0  0  0  0  0
   -2.0136   -2.5981    0.0000 O   0  0  0  0  0  0  0  0  0  0  0  0
   -2.7636   -3.8971    0.0000 C   0  0  0  0  0  0  0  0  0  0  0  0
   -4.2636   -3.8971    0.0000 C   0  0  0  0  0  0  0  0  0  0  0  0
   -2.0136   -5.1962    0.0000 C   0  0  0  0  0  0  0  0  0  0  0  0
    0.2364   -3.8971    0.0000 C   0  0  0  0  0  0  0  0  0  0  0  0
    1.7364   -3.8971    0.0000 C   0  0  0  0  0  0  0  0  0  0  0  0
    2.4864   -2.5981    0.0000 C   0  0  0  0  0  0  0  0  0  0  0  0
    1.7364   -1.2990    0.0000 C   0  0  0  0  0  0  0  0  0  0  0  0
    2.4864   -0.0000    0.0000 O   0  0  0  0  0  0  0  0  0  0  0  0
    3.9864   -0.0000    0.0000 C   0  0  0  0  0  0  0  0  0  0  0  0
    4.8891    1.1979    0.0000 C   0  0  0  0  0  0  0  0  0  0  0  0
    4.8891   -1.1979    0.0000 C   0  0  0  0  0  0  0  0  0  0  0  0
  1  2  1  0
  2  3  2  0
  3  4  1  0
  4  5  1  0
  5  6  1  0
  5  7  1  0
  3  8  1  0
  8  9  2  0
  9 10  1  0
 10 11  2  0
 11 12  1  0
 12 13  1  0
 13 14  1  0
 13 15  1  0
  1 16  1  0
 16 17  2  0
 17 18  1  0
 18 19  2  0
 19 20  1  0
 20 21  2  0
  1 22  1  0
 22 23  2  0
 23 24  1  0
 24 25  1  0
 25 26  1  0
 25 27  1  0
 23 28  1  0
 28 29  2  0
 29 30  1  0
 30 31  2  0
 31 32  1  0
 32 33  1  0
 33 34  1  0
 33 35  1  0
 11  2  1  0
 21 16  1  0
 31 22  1  0
M  END
$$$$
Molecule_132
     RDKit          2D

 40 46  0  0  0  0  0  0  0  0999 V2000
   -0.2462   -0.0879    0.0000 P   0  0  0  0  0  0  0  0  0  0  0  0
    0.3416   -1.4679    0.0000 C   0  0  0  0  0  0  0  0  0  0  0  0
    1.8036   -1.8035    0.0000 N   0  0  0  0  0  0  0  0  0  0  0  0
    1.9363   -3.2976    0.0000 N   0  0  0  0  0  0  0  0  0  0  0  0
    3.2230   -4.0685    0.0000 C   0  0  0  0  0  0  0  0  0  0  0  0
    3.1987   -5.5683    0.0000 C   0  0  0  0  0  0  0  0  0  0  0  0
    4.4855   -6.3393    0.0000 C   0  0  0  0  0  0  0  0  0  0  0  0
    5.7965   -5.6104    0.0000 C   0  0  0  0  0  0  0  0  0  0  0  0
    5.8207   -4.1106    0.0000 C   0  0  0  0  0  0  0  0  0  0  0  0
    4.5340   -3.3397    0.0000 C   0  0  0  0  0  0  0  0  0  0  0  0
    0.5562   -3.8855    0.0000 C   0  0  0  0  0  0  0  0  0  0  0  0
   -0.4293   -2.7547    0.0000 C   0  0  0  0  0  0  0  0  0  0  0  0
    0.6550    1.1112    0.0000 C   0  0  0  0  0  0  0  0  0  0  0  0
    0.2146    2.5451    0.0000 C   0  0  0  0  0  0  0  0  0  0  0  0
   -1.2043    3.0316    0.0000 C   0  0  0  0  0  0  0  0  0  0  0  0
   -2.3351    2.0461    0.0000 C   0  0  0  0  0  0  0  0  0  0  0  0
   -3.7540    2.5327    0.0000 C   0  0  0  0  0  0  0  0  0  0  0  0
   -4.0421    4.0047    0.0000 C   0  0  0  0  0  0  0  0  0  0  0  0
   -2.9113    4.9903    0.0000 C   0  0  0  0  0  0  0  0  0  0  0  0
   -1.4924    4.5037    0.0000 C   0  0  0  0  0  0  0  0  0  0  0  0
    1.4422    3.4070    0.0000 N   0  0  0  0  0  0  0  0  0  0  0  0
    2.6413    2.5058    0.0000 N   0  0  0  0  0  0  0  0  0  0  0  0
    4.0752    2.9462    0.0000 C   0  0  0  0  0  0  0  0  0  0  0  0
    5.1736    1.9246    0.0000 C   0  0  0  0  0  0  0  0  0  0  0  0
    6.6075    2.3650    0.0000 C   0  0  0  0  0  0  0  0  0  0  0  0
    6.9430    3.8270    0.0000 C   0  0  0  0  0  0  0  0  0  0  0  0
    5.8447    4.8486    0.0000 C   0  0  0  0  0  0  0  0  0  0  0  0
    4.4108    4.4082    0.0000 C   0  0  0  0  0  0  0  0  0  0  0  0
    2.1548    1.0869    0.0000 C   0  0  0  0  0  0  0  0  0  0  0  0
   -1.7353    0.0930    0.0000 C   0  0  0  0  0  0  0  0  0  0  0  0
   -2.7569   -1.0053    0.0000 N   0  0  0  0  0  0  0  0  0  0  0  0
   -4.1171   -0.3731    0.0000 N   0  0  0  0  0  0  0  0  0  0  0  0
   -5.4281   -1.1020    0.0000 C   0  0  0  0  0  0  0  0  0  0  0  0
   -6.7149   -0.3311    0.0000 C   0  0  0  0  0  0  0  0  0  0  0  0
   -8.0259   -1.0600    0.0000 C   0  0  0  0  0  0  0  0  0  0  0  0
   -8.0501   -2.5598    0.0000 C   0  0  0  0  0  0  0  0  0  0  0  0
   -6.7634   -3.3307    0.0000 C   0  0  0  0  0  0  0  0  0  0  0  0
   -5.4524   -2.6018    0.0000 C   0  0  0  0  0  0  0  0  0  0  0  0
   -3.9362    1.1159    0.0000 C   0  0  0  0  0  0  0  0  0  0  0  0
   -2.4641    1.4040    0.0000 C   0  0  0  0  0  0  0  0  0  0  0  0
  1  2  1  0
  2  3  2  0
  3  4  1  0
  4  5  1  0
  5  6  2  0
  6  7  1  0
  7  8  2  0
  8  9  1  0
  9 10  2  0
  4 11  1  0
 11 12  2  0
  1 13  1  0
 13 14  1  0
 14 15  1  0
 15 16  2  0
 16 17  1  0
 17 18  2  0
 18 19  1  0
 19 20  2  0
 14 21  2  0
 21 22  1  0
 22 23  1  0
 23 24  2  0
 24 25  1  0
 25 26  2  0
 26 27  1  0
 27 28  2  0
 22 29  1  0
  1 30  1  0
 30 31  2  0
 31 32  1  0
 32 33  1  0
 33 34  2  0
 34 35  1  0
 35 36  2  0
 36 37  1  0
 37 38  2  0
 32 39  1  0
 39 40  2  0
 12  2  1  0
 29 13  2  0
 40 30  1  0
 10  5  1  0
 20 15  1  0
 28 23  1  0
 38 33  1  0
M  END
$$$$
Molecule_133
     RDKit          2D

 42 46  0  0  0  0  0  0  0  0999 V2000
    1.1197   -0.1957    0.0000 P   0  0  0  0  0  0  0  0  0  0  0  0
    1.8438    1.1180    0.0000 C   0  0  0  0  0  0  0  0  0  0  0  0
    3.3435    1.1477    0.0000 C   0  0  0  0  0  0  0  0  0  0  0  0
    4.0676    2.4614    0.0000 C   0  0  0  0  0  0  0  0  0  0  0  0
    3.2920    3.7453    0.0000 C   0  0  0  0  0  0  0  0  0  0  0  0
    4.0160    5.0590    0.0000 N   0  0  0  0  0  0  0  0  0  0  0  0
    5.5157    5.0887    0.0000 C   0  0  0  0  0  0  0  0  0  0  0  0
    3.2404    6.3429    0.0000 C   0  0  0  0  0  0  0  0  0  0  0  0
    1.7923    3.7155    0.0000 C   0  0  0  0  0  0  0  0  0  0  0  0
    1.0682    2.4019    0.0000 C   0  0  0  0  0  0  0  0  0  0  0  0
   -0.4315    2.3721    0.0000 N   0  0  0  0  0  0  0  0  0  0  0  0
   -1.2072    3.6560    0.0000 C   0  0  0  0  0  0  0  0  0  0  0  0
   -1.1010    1.6508    0.0000 C   0  0  0  0  0  0  0  0  0  0  0  0
   -0.3800   -0.2255    0.0000 C   0  0  0  0  0  0  0  0  0  0  0  0
   -1.2374   -1.4563    0.0000 N   0  0  0  0  0  0  0  0  0  0  0  0
   -2.6729   -1.0211    0.0000 N   0  0  0  0  0  0  0  0  0  0  0  0
   -3.8687   -1.9267    0.0000 C   0  0  0  0  0  0  0  0  0  0  0  0
   -5.2508   -1.3440    0.0000 C   0  0  0  0  0  0  0  0  0  0  0  0
   -6.4466   -2.2495    0.0000 C   0  0  0  0  0  0  0  0  0  0  0  0
   -6.2602   -3.7379    0.0000 C   0  0  0  0  0  0  0  0  0  0  0  0
   -4.8781   -4.3207    0.0000 C   0  0  0  0  0  0  0  0  0  0  0  0
   -3.6823   -3.4151    0.0000 C   0  0  0  0  0  0  0  0  0  0  0  0
   -2.7027    0.4786    0.0000 C   0  0  0  0  0  0  0  0  0  0  0  0
   -3.9334    1.3360    0.0000 C   0  0  0  0  0  0  0  0  0  0  0  0
   -3.8063    2.8306    0.0000 C   0  0  0  0  0  0  0  0  0  0  0  0
   -5.0371    3.6880    0.0000 C   0  0  0  0  0  0  0  0  0  0  0  0
   -6.3950    3.0508    0.0000 C   0  0  0  0  0  0  0  0  0  0  0  0
   -6.5222    1.5562    0.0000 C   0  0  0  0  0  0  0  0  0  0  0  0
   -5.2914    0.6988    0.0000 C   0  0  0  0  0  0  0  0  0  0  0  0
   -1.2855    0.9703    0.0000 C   0  0  0  0  0  0  0  0  0  0  0  0
    1.8954   -1.4796    0.0000 C   0  0  0  0  0  0  0  0  0  0  0  0
    1.1713   -2.7933    0.0000 C   0  0  0  0  0  0  0  0  0  0  0  0
    1.9469   -4.0772    0.0000 C   0  0  0  0  0  0  0  0  0  0  0  0
    3.4467   -4.0474    0.0000 C   0  0  0  0  0  0  0  0  0  0  0  0
    4.2223   -5.3313    0.0000 N   0  0  0  0  0  0  0  0  0  0  0  0
    3.4982   -6.6450    0.0000 C   0  0  0  0  0  0  0  0  0  0  0  0
    5.7220   -5.3015    0.0000 C   0  0  0  0  0  0  0  0  0  0  0  0
    4.1707   -2.7337    0.0000 C   0  0  0  0  0  0  0  0  0  0  0  0
    3.3951   -1.4498    0.0000 C   0  0  0  0  0  0  0  0  0  0  0  0
    4.1192   -0.1362    0.0000 N   0  0  0  0  0  0  0  0  0  0  0  0
    5.6189   -0.1064    0.0000 C   0  0  0  0  0  0  0  0  0  0  0  0
    3.8843    0.6256    0.0000 C   0  0  0  0  0  0  0  0  0  0  0  0
  1  2  1  0
  2  3  2  0
  3  4  1  0
  4  5  2  0
  5  6  1  0
  6  7  1  0
  6  8  1  0
  5  9  1  0
  9 10  2  0
 10 11  1  0
 11 12  1  0
 11 13  1  0
  1 14  1  0
 14 15  2  0
 15 16  1  0
 16 17  1  0
 17 18  2  0
 18 19  1  0
 19 20  2  0
 20 21  1  0
 21 22  2  0
 16 23  1  0
 23 24  1  0
 24 25  2  0
 25 26  1  0
 26 27  2  0
 27 28  1  0
 28 29  2  0
 23 30  2  0
  1 31  1  0
 31 32  2  0
 32 33  1  0
 33 34  2  0
 34 35  1  0
 35 36  1  0
 35 37  1  0
 34 38  1  0
 38 39  2  0
 39 40  1  0
 40 41  1  0
 40 42  1  0
 10  2  1  0
 30 14  1  0
 39 31  1  0
 22 17  1  0
 29 24  1  0
M  END
$$$$
Molecule_134
     RDKit          2D

 25 28  0  0  0  0  0  0  0  0999 V2000
    0.9525   -0.0000    0.0000 P   0  0  0  0  0  0  0  0  0  0  0  0
    2.3698    0.4910    0.0000 C   0  0  0  0  0  0  0  0  0  0  0  0
    3.5037   -0.4910    0.0000 C   0  0  0  0  0  0  0  0  0  0  0  0
    4.9211   -0.0000    0.0000 C   0  0  0  0  0  0  0  0  0  0  0  0
    5.2046    1.4730    0.0000 C   0  0  0  0  0  0  0  0  0  0  0  0
    4.0707    2.4550    0.0000 C   0  0  0  0  0  0  0  0  0  0  0  0
    2.6533    1.9640    0.0000 C   0  0  0  0  0  0  0  0  0  0  0  0
    0.6690   -1.4730    0.0000 C   0  0  0  0  0  0  0  0  0  0  0  0
    1.8029   -2.4550    0.0000 C   0  0  0  0  0  0  0  0  0  0  0  0
    1.5194   -3.9279    0.0000 C   0  0  0  0  0  0  0  0  0  0  0  0
    0.1021   -4.4189    0.0000 C   0  0  0  0  0  0  0  0  0  0  0  0
   -1.0318   -3.4369    0.0000 C   0  0  0  0  0  0  0  0  0  0  0  0
   -0.7484   -1.9640    0.0000 C   0  0  0  0  0  0  0  0  0  0  0  0
   -1.8823   -0.9820    0.0000 N   0  0  0  0  0  0  0  0  0  0  0  0
   -3.2996   -1.4730    0.0000 C   0  0  0  0  0  0  0  0  0  0  0  0
   -4.4335   -0.4910    0.0000 C   0  0  0  0  0  0  0  0  0  0  0  0
   -4.1500    0.9820    0.0000 C   0  0  0  0  0  0  0  0  0  0  0  0
   -2.7327    1.4730    0.0000 C   0  0  0  0  0  0  0  0  0  0  0  0
   -1.5988    0.4910    0.0000 C   0  0  0  0  0  0  0  0  0  0  0  0
   -0.1814    0.9820    0.0000 C   0  0  0  0  0  0  0  0  0  0  0  0
    0.1021    2.4550    0.0000 C   0  0  0  0  0  0  0  0  0  0  0  0
   -1.0318    3.4369    0.0000 C   0  0  0  0  0  0  0  0  0  0  0  0
   -2.4492    2.9459    0.0000 C   0  0  0  0  0  0  0  0  0  0  0  0
   -2.7327    1.4730    0.0000 C   0  0  0  0  0  0  0  0  0  0  0  0
   -1.5988    0.4910    0.0000 C   0  0  0  0  0  0  0  0  0  0  0  0
  1  2  1  0
  2  3  2  0
  3  4  1  0
  4  5  2  0
  5  6  1  0
  6  7  2  0
  1  8  1  0
  8  9  2  0
  9 10  1  0
 10 11  2  0
 11 12  1  0
 12 13  2  0
 13 14  1  0
 14 15  1  0
 15 16  1  0
 16 17  1  0
 17 18  1  0
 18 19  1  0
  1 20  1  0
 20 21  2  0
 21 22  1  0
 22 23  2  0
 23 24  1  0
 24 25  2  0
  7  2  1  0
 13  8  1  0
 19 14  1  0
 25 20  1  0
M  END
$$$$
Molecule_135
     RDKit          2D

 36 39  0  0  0  0  0  0  0  0999 V2000
   -3.8500   -5.0898    0.0000 C   0  0  0  0  0  0  0  0  0  0  0  0
   -3.5838   -3.6137    0.0000 C   0  0  0  0  0  0  0  0  0  0  0  0
   -2.1723   -3.1061    0.0000 O   0  0  0  0  0  0  0  0  0  0  0  0
   -1.9061   -1.6299    0.0000 C   0  0  0  0  0  0  0  0  0  0  0  0
   -3.0514   -0.6613    0.0000 C   0  0  0  0  0  0  0  0  0  0  0  0
   -2.7852    0.8149    0.0000 C   0  0  0  0  0  0  0  0  0  0  0  0
   -3.9305    1.7835    0.0000 O   0  0  0  0  0  0  0  0  0  0  0  0
   -5.3420    1.2760    0.0000 C   0  0  0  0  0  0  0  0  0  0  0  0
   -6.4874    2.2446    0.0000 C   0  0  0  0  0  0  0  0  0  0  0  0
   -5.6082   -0.2002    0.0000 C   0  0  0  0  0  0  0  0  0  0  0  0
   -1.3737    1.3225    0.0000 C   0  0  0  0  0  0  0  0  0  0  0  0
   -1.1075    2.7987    0.0000 C   0  0  0  0  0  0  0  0  0  0  0  0
    0.3687    2.5325    0.0000 C   0  0  0  0  0  0  0  0  0  0  0  0
   -2.5837    3.0649    0.0000 C   0  0  0  0  0  0  0  0  0  0  0  0
   -0.8413    4.2749    0.0000 C   0  0  0  0  0  0  0  0  0  0  0  0
   -0.2284    0.3539    0.0000 C   0  0  0  0  0  0  0  0  0  0  0  0
   -0.4946   -1.1223    0.0000 C   0  0  0  0  0  0  0  0  0  0  0  0
    0.6508   -2.0909    0.0000 N   0  0  0  0  0  0  0  0  0  0  0  0
    2.1076   -1.7337    0.0000 C   0  0  0  0  0  0  0  0  0  0  0  0
    2.6749   -0.3451    0.0000 P   0  0  0  0  0  0  0  0  0  0  0  0
    1.7560    0.8405    0.0000 C   0  0  0  0  0  0  0  0  0  0  0  0
    2.3233    2.2291    0.0000 C   0  0  0  0  0  0  0  0  0  0  0  0
    1.4044    3.4146    0.0000 C   0  0  0  0  0  0  0  0  0  0  0  0
   -0.0818    3.2116    0.0000 C   0  0  0  0  0  0  0  0  0  0  0  0
   -0.6491    1.8230    0.0000 C   0  0  0  0  0  0  0  0  0  0  0  0
    0.2698    0.6375    0.0000 C   0  0  0  0  0  0  0  0  0  0  0  0
    4.1611   -0.1421    0.0000 C   0  0  0  0  0  0  0  0  0  0  0  0
    4.7284    1.2465    0.0000 C   0  0  0  0  0  0  0  0  0  0  0  0
    6.2146    1.4495    0.0000 C   0  0  0  0  0  0  0  0  0  0  0  0
    7.1335    0.2639    0.0000 C   0  0  0  0  0  0  0  0  0  0  0  0
    6.5662   -1.1247    0.0000 C   0  0  0  0  0  0  0  0  0  0  0  0
    5.0800   -1.3277    0.0000 C   0  0  0  0  0  0  0  0  0  0  0  0
    2.8976   -3.0088    0.0000 C   0  0  0  0  0  0  0  0  0  0  0  0
    1.9289   -4.1542    0.0000 C   0  0  0  0  0  0  0  0  0  0  0  0
    0.5403   -3.5869    0.0000 N   0  0  0  0  0  0  0  0  0  0  0  0
   -4.7291   -2.6450    0.0000 C   0  0  0  0  0  0  0  0  0  0  0  0
  1  2  1  0
  2  3  1  0
  3  4  1  0
  4  5  2  0
  5  6  1  0
  6  7  1  0
  7  8  1  0
  8  9  1  0
  8 10  1  0
  6 11  2  0
 11 12  1  0
 12 13  1  0
 12 14  1  0
 12 15  1  0
 11 16  1  0
 16 17  2  0
 17 18  1  0
 18 19  1  0
 19 20  1  0
 20 21  1  0
 21 22  2  0
 22 23  1  0
 23 24  2  0
 24 25  1  0
 25 26  2  0
 20 27  1  0
 27 28  2  0
 28 29  1  0
 29 30  2  0
 30 31  1  0
 31 32  2  0
 19 33  2  0
 33 34  1  0
 34 35  2  0
  2 36  1  0
 17  4  1  0
 35 18  1  0
 26 21  1  0
 32 27  1  0
M  END
$$$$
Molecule_136
     RDKit          2D

 36 41  0  0  0  0  0  0  0  0999 V2000
    1.1367    0.9330    0.0000 P   0  0  0  0  0  0  0  0  0  0  0  0
    2.6329    0.8265    0.0000 C   0  0  0  0  0  0  0  0  0  0  0  0
    3.4733    2.0690    0.0000 C   0  0  0  0  0  0  0  0  0  0  0  0
    4.9695    1.9625    0.0000 C   0  0  0  0  0  0  0  0  0  0  0  0
    5.6254    0.6135    0.0000 C   0  0  0  0  0  0  0  0  0  0  0  0
    4.7850   -0.6290    0.0000 C   0  0  0  0  0  0  0  0  0  0  0  0
    3.2888   -0.5225    0.0000 C   0  0  0  0  0  0  0  0  0  0  0  0
    0.2964   -0.3095    0.0000 C   0  0  0  0  0  0  0  0  0  0  0  0
    0.8076   -1.7197    0.0000 C   0  0  0  0  0  0  0  0  0  0  0  0
    2.2490   -2.1350    0.0000 C   0  0  0  0  0  0  0  0  0  0  0  0
    2.6101   -3.5909    0.0000 C   0  0  0  0  0  0  0  0  0  0  0  0
    4.0514   -4.0061    0.0000 C   0  0  0  0  0  0  0  0  0  0  0  0
    5.1318   -2.9655    0.0000 C   0  0  0  0  0  0  0  0  0  0  0  0
    4.7707   -1.5096    0.0000 C   0  0  0  0  0  0  0  0  0  0  0  0
    3.3293   -1.0943    0.0000 C   0  0  0  0  0  0  0  0  0  0  0  0
   -0.3755   -2.6417    0.0000 N   0  0  0  0  0  0  0  0  0  0  0  0
   -1.6180   -1.8014    0.0000 N   0  0  0  0  0  0  0  0  0  0  0  0
   -3.0282   -2.3126    0.0000 C   0  0  0  0  0  0  0  0  0  0  0  0
   -4.1761   -1.3470    0.0000 C   0  0  0  0  0  0  0  0  0  0  0  0
   -5.5863   -1.8583    0.0000 C   0  0  0  0  0  0  0  0  0  0  0  0
   -5.8486   -3.3352    0.0000 C   0  0  0  0  0  0  0  0  0  0  0  0
   -4.7007   -4.3008    0.0000 C   0  0  0  0  0  0  0  0  0  0  0  0
   -3.2905   -3.7895    0.0000 C   0  0  0  0  0  0  0  0  0  0  0  0
   -1.2028   -0.3600    0.0000 C   0  0  0  0  0  0  0  0  0  0  0  0
   -2.1248    0.8232    0.0000 C   0  0  0  0  0  0  0  0  0  0  0  0
   -1.5611    2.2132    0.0000 C   0  0  0  0  0  0  0  0  0  0  0  0
   -2.4832    3.3964    0.0000 C   0  0  0  0  0  0  0  0  0  0  0  0
   -3.9688    3.1895    0.0000 C   0  0  0  0  0  0  0  0  0  0  0  0
   -4.5325    1.7994    0.0000 C   0  0  0  0  0  0  0  0  0  0  0  0
   -3.6105    0.6163    0.0000 C   0  0  0  0  0  0  0  0  0  0  0  0
    0.4808    2.2820    0.0000 C   0  0  0  0  0  0  0  0  0  0  0  0
    1.3212    3.5245    0.0000 C   0  0  0  0  0  0  0  0  0  0  0  0
    0.6653    4.8735    0.0000 C   0  0  0  0  0  0  0  0  0  0  0  0
   -0.8309    4.9800    0.0000 C   0  0  0  0  0  0  0  0  0  0  0  0
   -1.6712    3.7375    0.0000 C   0  0  0  0  0  0  0  0  0  0  0  0
   -1.0154    2.3885    0.0000 C   0  0  0  0  0  0  0  0  0  0  0  0
  1  2  1  0
  2  3  2  0
  3  4  1  0
  4  5  2  0
  5  6  1  0
  6  7  2  0
  1  8  1  0
  8  9  1  0
  9 10  1  0
 10 11  2  0
 11 12  1  0
 12 13  2  0
 13 14  1  0
 14 15  2  0
  9 16  2  0
 16 17  1  0
 17 18  1  0
 18 19  2  0
 19 20  1  0
 20 21  2  0
 21 22  1  0
 22 23  2  0
 17 24  1  0
 24 25  1  0
 25 26  2  0
 26 27  1  0
 27 28  2  0
 28 29  1  0
 29 30  2  0
  1 31  1  0
 31 32  2  0
 32 33  1  0
 33 34  2  0
 34 35  1  0
 35 36  2  0
  7  2  1  0
 24  8  2  0
 30 25  1  0
 36 31  1  0
 15 10  1  0
 23 18  1  0
M  END
$$$$
Molecule_137
     RDKit          2D

 38 42  0  0  0  0  0  0  0  0999 V2000
    0.0651    0.2365    0.0000 P   0  0  0  0  0  0  0  0  0  0  0  0
   -0.3101    1.6888    0.0000 C   0  0  0  0  0  0  0  0  0  0  0  0
    0.7600    2.7399    0.0000 C   0  0  0  0  0  0  0  0  0  0  0  0
    0.3847    4.1922    0.0000 C   0  0  0  0  0  0  0  0  0  0  0  0
   -1.0606    4.5934    0.0000 C   0  0  0  0  0  0  0  0  0  0  0  0
   -2.1307    3.5423    0.0000 C   0  0  0  0  0  0  0  0  0  0  0  0
   -3.5761    3.9435    0.0000 O   0  0  0  0  0  0  0  0  0  0  0  0
   -3.9513    5.3958    0.0000 C   0  0  0  0  0  0  0  0  0  0  0  0
   -5.3967    5.7969    0.0000 C   0  0  0  0  0  0  0  0  0  0  0  0
   -2.8812    6.4469    0.0000 C   0  0  0  0  0  0  0  0  0  0  0  0
   -1.7555    2.0900    0.0000 C   0  0  0  0  0  0  0  0  0  0  0  0
    1.5105   -0.1647    0.0000 N   0  0  0  0  0  0  0  0  0  0  0  0
    2.6846    0.7688    0.0000 N   0  0  0  0  0  0  0  0  0  0  0  0
    3.9352   -0.0594    0.0000 C   0  0  0  0  0  0  0  0  0  0  0  0
    5.3403    0.4656    0.0000 C   0  0  0  0  0  0  0  0  0  0  0  0
    6.4976   -0.4888    0.0000 C   0  0  0  0  0  0  0  0  0  0  0  0
    7.9027    0.0362    0.0000 C   0  0  0  0  0  0  0  0  0  0  0  0
    8.1506    1.5156    0.0000 C   0  0  0  0  0  0  0  0  0  0  0  0
    6.9934    2.4700    0.0000 C   0  0  0  0  0  0  0  0  0  0  0  0
    5.5883    1.9450    0.0000 C   0  0  0  0  0  0  0  0  0  0  0  0
    3.5340   -1.5048    0.0000 C   0  0  0  0  0  0  0  0  0  0  0  0
    2.0354   -1.5698    0.0000 C   0  0  0  0  0  0  0  0  0  0  0  0
    1.2073   -2.8205    0.0000 C   0  0  0  0  0  0  0  0  0  0  0  0
    1.8763   -4.1630    0.0000 C   0  0  0  0  0  0  0  0  0  0  0  0
    1.0481   -5.4137    0.0000 C   0  0  0  0  0  0  0  0  0  0  0  0
   -0.4491   -5.3218    0.0000 C   0  0  0  0  0  0  0  0  0  0  0  0
   -1.1181   -3.9792    0.0000 C   0  0  0  0  0  0  0  0  0  0  0  0
   -0.2899   -2.7286    0.0000 C   0  0  0  0  0  0  0  0  0  0  0  0
   -1.0050   -0.8147    0.0000 C   0  0  0  0  0  0  0  0  0  0  0  0
   -0.6298   -2.2670    0.0000 C   0  0  0  0  0  0  0  0  0  0  0  0
   -1.6999   -3.3181    0.0000 C   0  0  0  0  0  0  0  0  0  0  0  0
   -3.1452   -2.9169    0.0000 C   0  0  0  0  0  0  0  0  0  0  0  0
   -3.5205   -1.4646    0.0000 C   0  0  0  0  0  0  0  0  0  0  0  0
   -4.9658   -1.0634    0.0000 O   0  0  0  0  0  0  0  0  0  0  0  0
   -6.0360   -2.1145    0.0000 C   0  0  0  0  0  0  0  0  0  0  0  0
   -7.4813   -1.7133    0.0000 C   0  0  0  0  0  0  0  0  0  0  0  0
   -5.6607   -3.5668    0.0000 C   0  0  0  0  0  0  0  0  0  0  0  0
   -2.4504   -0.4135    0.0000 C   0  0  0  0  0  0  0  0  0  0  0  0
  1  2  1  0
  2  3  2  0
  3  4  1  0
  4  5  2  0
  5  6  1  0
  6  7  1  0
  7  8  1  0
  8  9  1  0
  8 10  1  0
  6 11  2  0
  1 12  1  0
 12 13  1  0
 13 14  2  0
 14 15  1  0
 15 16  2  0
 16 17  1  0
 17 18  2  0
 18 19  1  0
 19 20  2  0
 14 21  1  0
 21 22  2  0
 22 23  1  0
 23 24  2  0
 24 25  1  0
 25 26  2  0
 26 27  1  0
 27 28  2  0
  1 29  1  0
 29 30  2  0
 30 31  1  0
 31 32  2  0
 32 33  1  0
 33 34  1  0
 34 35  1  0
 35 36  1  0
 35 37  1  0
 33 38  2  0
 11  2  1  0
 22 12  1  0
 28 23  1  0
 38 29  1  0
 20 15  1  0
M  END
$$$$
Molecule_138
     RDKit          2D

 42 48  0  0  0  0  0  0  0  0999 V2000
    0.9540   -0.0105    0.0000 P   0  0  0  0  0  0  0  0  0  0  0  0
    1.2167    1.4663    0.0000 C   0  0  0  0  0  0  0  0  0  0  0  0
    2.6270    1.9772    0.0000 C   0  0  0  0  0  0  0  0  0  0  0  0
    2.8897    3.4540    0.0000 C   0  0  0  0  0  0  0  0  0  0  0  0
    1.7421    4.4199    0.0000 C   0  0  0  0  0  0  0  0  0  0  0  0
    0.3318    3.9090    0.0000 C   0  0  0  0  0  0  0  0  0  0  0  0
    0.0691    2.4322    0.0000 C   0  0  0  0  0  0  0  0  0  0  0  0
   -1.3413    1.9213    0.0000 N   0  0  0  0  0  0  0  0  0  0  0  0
   -2.4889    2.8872    0.0000 C   0  0  0  0  0  0  0  0  0  0  0  0
   -3.8992    2.3763    0.0000 C   0  0  0  0  0  0  0  0  0  0  0  0
   -4.1619    0.8995    0.0000 C   0  0  0  0  0  0  0  0  0  0  0  0
   -3.0143   -0.0664    0.0000 C   0  0  0  0  0  0  0  0  0  0  0  0
   -1.6040    0.4445    0.0000 C   0  0  0  0  0  0  0  0  0  0  0  0
   -0.4564   -0.5214    0.0000 C   0  0  0  0  0  0  0  0  0  0  0  0
   -0.8720   -1.9627    0.0000 C   0  0  0  0  0  0  0  0  0  0  0  0
    0.0497   -3.1461    0.0000 C   0  0  0  0  0  0  0  0  0  0  0  0
   -0.5143   -4.5360    0.0000 C   0  0  0  0  0  0  0  0  0  0  0  0
    0.4074   -5.7195    0.0000 C   0  0  0  0  0  0  0  0  0  0  0  0
    1.8931   -5.5129    0.0000 C   0  0  0  0  0  0  0  0  0  0  0  0
    2.4571   -4.1230    0.0000 C   0  0  0  0  0  0  0  0  0  0  0  0
    1.5354   -2.9396    0.0000 C   0  0  0  0  0  0  0  0  0  0  0  0
   -2.3712   -2.0128    0.0000 N   0  0  0  0  0  0  0  0  0  0  0  0
   -2.8821   -0.6025    0.0000 N   0  0  0  0  0  0  0  0  0  0  0  0
   -4.3233   -0.1868    0.0000 C   0  0  0  0  0  0  0  0  0  0  0  0
   -4.6840    1.2692    0.0000 C   0  0  0  0  0  0  0  0  0  0  0  0
   -6.1253    1.6848    0.0000 C   0  0  0  0  0  0  0  0  0  0  0  0
   -7.2059    0.6444    0.0000 C   0  0  0  0  0  0  0  0  0  0  0  0
   -6.8452   -0.8115    0.0000 C   0  0  0  0  0  0  0  0  0  0  0  0
   -5.4039   -1.2272    0.0000 C   0  0  0  0  0  0  0  0  0  0  0  0
   -1.6986    0.3192    0.0000 C   0  0  0  0  0  0  0  0  0  0  0  0
    2.1016   -0.9765    0.0000 C   0  0  0  0  0  0  0  0  0  0  0  0
    1.8388   -2.4533    0.0000 C   0  0  0  0  0  0  0  0  0  0  0  0
    2.9865   -3.4192    0.0000 C   0  0  0  0  0  0  0  0  0  0  0  0
    4.3968   -2.9083    0.0000 C   0  0  0  0  0  0  0  0  0  0  0  0
    4.6595   -1.4315    0.0000 C   0  0  0  0  0  0  0  0  0  0  0  0
    3.5119   -0.4656    0.0000 C   0  0  0  0  0  0  0  0  0  0  0  0
    3.7746    1.0112    0.0000 N   0  0  0  0  0  0  0  0  0  0  0  0
    5.1849    1.5221    0.0000 C   0  0  0  0  0  0  0  0  0  0  0  0
    5.4476    2.9990    0.0000 C   0  0  0  0  0  0  0  0  0  0  0  0
    4.3000    3.9649    0.0000 C   0  0  0  0  0  0  0  0  0  0  0  0
    2.8897    3.4540    0.0000 C   0  0  0  0  0  0  0  0  0  0  0  0
    2.6270    1.9772    0.0000 C   0  0  0  0  0  0  0  0  0  0  0  0
  1  2  1  0
  2  3  2  0
  3  4  1  0
  4  5  2  0
  5  6  1  0
  6  7  2  0
  7  8  1  0
  8  9  1  0
  9 10  1  0
 10 11  1  0
 11 12  1  0
 12 13  1  0
  1 14  1  0
 14 15  1  0
 15 16  1  0
 16 17  2  0
 17 18  1  0
 18 19  2  0
 19 20  1  0
 20 21  2  0
 15 22  2  0
 22 23  1  0
 23 24  1  0
 24 25  2  0
 25 26  1  0
 26 27  2  0
 27 28  1  0
 28 29  2  0
 23 30  1  0
  1 31  1  0
 31 32  2  0
 32 33  1  0
 33 34  2  0
 34 35  1  0
 35 36  2  0
 36 37  1  0
 37 38  1  0
 38 39  1  0
 39 40  1  0
 40 41  1  0
 41 42  1  0
  7  2  1  0
 13  8  1  0
 30 14  2  0
 36 31  1  0
 42 37  1  0
 21 16  1  0
 29 24  1  0
M  END
$$$$
Molecule_139
     RDKit          2D

 34 36  0  0  0  0  0  0  0  0999 V2000
   -0.1204    0.3080    0.0000 P   0  0  0  0  0  0  0  0  0  0  0  0
    0.9107    1.3974    0.0000 C   0  0  0  0  0  0  0  0  0  0  0  0
    2.3697    1.0491    0.0000 C   0  0  0  0  0  0  0  0  0  0  0  0
    2.7976   -0.3885    0.0000 O   0  0  0  0  0  0  0  0  0  0  0  0
    4.2566   -0.7368    0.0000 C   0  0  0  0  0  0  0  0  0  0  0  0
    4.6845   -2.1745    0.0000 C   0  0  0  0  0  0  0  0  0  0  0  0
    3.4009    2.1385    0.0000 C   0  0  0  0  0  0  0  0  0  0  0  0
    2.9730    3.5762    0.0000 C   0  0  0  0  0  0  0  0  0  0  0  0
    1.5140    3.9245    0.0000 C   0  0  0  0  0  0  0  0  0  0  0  0
    0.4828    2.8351    0.0000 C   0  0  0  0  0  0  0  0  0  0  0  0
   -0.9762    3.1834    0.0000 O   0  0  0  0  0  0  0  0  0  0  0  0
   -1.4041    4.6211    0.0000 C   0  0  0  0  0  0  0  0  0  0  0  0
   -2.8631    4.9693    0.0000 C   0  0  0  0  0  0  0  0  0  0  0  0
   -1.5794    0.6563    0.0000 C   0  0  0  0  0  0  0  0  0  0  0  0
   -2.0073    2.0940    0.0000 C   0  0  0  0  0  0  0  0  0  0  0  0
   -3.4663    2.4423    0.0000 C   0  0  0  0  0  0  0  0  0  0  0  0
   -4.4974    1.3529    0.0000 C   0  0  0  0  0  0  0  0  0  0  0  0
   -4.0695   -0.0848    0.0000 C   0  0  0  0  0  0  0  0  0  0  0  0
   -2.6105   -0.4331    0.0000 C   0  0  0  0  0  0  0  0  0  0  0  0
   -2.1826   -1.8708    0.0000 N   0  0  0  0  0  0  0  0  0  0  0  0
   -3.4467   -2.6783    0.0000 C   0  0  0  0  0  0  0  0  0  0  0  0
   -0.8513   -2.5617    0.0000 C   0  0  0  0  0  0  0  0  0  0  0  0
    0.3075   -1.1297    0.0000 C   0  0  0  0  0  0  0  0  0  0  0  0
    1.7665   -1.4779    0.0000 C   0  0  0  0  0  0  0  0  0  0  0  0
    2.7976   -0.3885    0.0000 O   0  0  0  0  0  0  0  0  0  0  0  0
    4.2566   -0.7368    0.0000 C   0  0  0  0  0  0  0  0  0  0  0  0
    5.2877    0.3526    0.0000 C   0  0  0  0  0  0  0  0  0  0  0  0
    2.1944   -2.9156    0.0000 C   0  0  0  0  0  0  0  0  0  0  0  0
    1.1633   -4.0050    0.0000 C   0  0  0  0  0  0  0  0  0  0  0  0
   -0.2958   -3.6567    0.0000 C   0  0  0  0  0  0  0  0  0  0  0  0
   -0.7236   -2.2190    0.0000 C   0  0  0  0  0  0  0  0  0  0  0  0
   -2.1826   -1.8708    0.0000 O   0  0  0  0  0  0  0  0  0  0  0  0
   -3.2138   -2.9602    0.0000 C   0  0  0  0  0  0  0  0  0  0  0  0
   -4.6728   -2.6119    0.0000 C   0  0  0  0  0  0  0  0  0  0  0  0
  1  2  1  0
  2  3  2  0
  3  4  1  0
  4  5  1  0
  5  6  1  0
  3  7  1  0
  7  8  2  0
  8  9  1  0
  9 10  2  0
 10 11  1  0
 11 12  1  0
 12 13  1  0
  1 14  1  0
 14 15  2  0
 15 16  1  0
 16 17  2  0
 17 18  1  0
 18 19  2  0
 19 20  1  0
 20 21  1  0
 20 22  1  0
  1 23  1  0
 23 24  2  0
 24 25  1  0
 25 26  1  0
 26 27  1  0
 24 28  1  0
 28 29  2  0
 29 30  1  0
 30 31  2  0
 31 32  1  0
 32 33  1  0
 33 34  1  0
 10  2  1  0
 19 14  1  0
 31 23  1  0
M  END
$$$$
Molecule_140
     RDKit          2D

 36 41  0  0  0  0  0  0  0  0999 V2000
    4.5890   -0.0000    0.0000 P   0  0  0  0  0  0  0  0  0  0  0  0
    5.3390    1.2990    0.0000 C   0  0  0  0  0  0  0  0  0  0  0  0
    6.8390    1.2990    0.0000 C   0  0  0  0  0  0  0  0  0  0  0  0
    7.5890    2.5981    0.0000 C   0  0  0  0  0  0  0  0  0  0  0  0
    6.8390    3.8971    0.0000 N   0  0  0  0  0  0  0  0  0  0  0  0
    5.3390    3.8971    0.0000 C   0  0  0  0  0  0  0  0  0  0  0  0
    4.5890    2.5981    0.0000 C   0  0  0  0  0  0  0  0  0  0  0  0
    3.0890   -0.0000    0.0000 C   0  0  0  0  0  0  0  0  0  0  0  0
    2.3390    1.2990    0.0000 C   0  0  0  0  0  0  0  0  0  0  0  0
    0.8390    1.2990    0.0000 C   0  0  0  0  0  0  0  0  0  0  0  0
    0.0890    0.0000    0.0000 C   0  0  0  0  0  0  0  0  0  0  0  0
   -1.4110    0.0000    0.0000 C   0  0  0  0  0  0  0  0  0  0  0  0
   -2.2927   -1.2135    0.0000 C   0  0  0  0  0  0  0  0  0  0  0  0
   -3.7193   -0.7500    0.0000 C   0  0  0  0  0  0  0  0  0  0  0  0
   -4.9328   -1.6317    0.0000 C   0  0  0  0  0  0  0  0  0  0  0  0
   -6.3031   -1.0216    0.0000 C   0  0  0  0  0  0  0  0  0  0  0  0
   -7.5166   -1.9033    0.0000 C   0  0  0  0  0  0  0  0  0  0  0  0
   -7.3598   -3.3950    0.0000 C   0  0  0  0  0  0  0  0  0  0  0  0
   -5.9895   -4.0051    0.0000 C   0  0  0  0  0  0  0  0  0  0  0  0
   -4.7760   -3.1235    0.0000 C   0  0  0  0  0  0  0  0  0  0  0  0
   -3.7193    0.7500    0.0000 N   0  0  0  0  0  0  0  0  0  0  0  0
   -4.9328    1.6317    0.0000 C   0  0  0  0  0  0  0  0  0  0  0  0
   -4.7760    3.1235    0.0000 C   0  0  0  0  0  0  0  0  0  0  0  0
   -5.9895    4.0051    0.0000 C   0  0  0  0  0  0  0  0  0  0  0  0
   -7.3598    3.3950    0.0000 C   0  0  0  0  0  0  0  0  0  0  0  0
   -7.5166    1.9033    0.0000 C   0  0  0  0  0  0  0  0  0  0  0  0
   -6.3031    1.0216    0.0000 C   0  0  0  0  0  0  0  0  0  0  0  0
   -2.2927    1.2135    0.0000 N   0  0  0  0  0  0  0  0  0  0  0  0
    0.8390   -1.2990    0.0000 C   0  0  0  0  0  0  0  0  0  0  0  0
    2.3390   -1.2990    0.0000 C   0  0  0  0  0  0  0  0  0  0  0  0
    5.3390   -1.2990    0.0000 C   0  0  0  0  0  0  0  0  0  0  0  0
    4.5890   -2.5981    0.0000 C   0  0  0  0  0  0  0  0  0  0  0  0
    5.3390   -3.8971    0.0000 C   0  0  0  0  0  0  0  0  0  0  0  0
    6.8390   -3.8971    0.0000 N   0  0  0  0  0  0  0  0  0  0  0  0
    7.5890   -2.5981    0.0000 C   0  0  0  0  0  0  0  0  0  0  0  0
    6.8390   -1.2990    0.0000 C   0  0  0  0  0  0  0  0  0  0  0  0
  1  2  1  0
  2  3  2  0
  3  4  1  0
  4  5  2  0
  5  6  1  0
  6  7  2  0
  1  8  1  0
  8  9  2  0
  9 10  1  0
 10 11  2  0
 11 12  1  0
 12 13  1  0
 13 14  2  0
 14 15  1  0
 15 16  2  0
 16 17  1  0
 17 18  2  0
 18 19  1  0
 19 20  2  0
 14 21  1  0
 21 22  1  0
 22 23  2  0
 23 24  1  0
 24 25  2  0
 25 26  1  0
 26 27  2  0
 21 28  1  0
 11 29  1  0
 29 30  2  0
  1 31  1  0
 31 32  2  0
 32 33  1  0
 33 34  2  0
 34 35  1  0
 35 36  2  0
  7  2  1  0
 30  8  1  0
 36 31  1  0
 28 12  2  0
 20 15  1  0
 27 22  1  0
M  END
$$$$
